/*--------------------------------*- C++ -*----------------------------------*\
  =========                 |
  \\      /  F ield         | OpenFOAM: The Open Source CFD Toolbox
   \\    /   O peration     | Website:  https://openfoam.org
    \\  /    A nd           | Version:  10
     \\/     M anipulation  |
\*---------------------------------------------------------------------------*/
FoamFile
{
    format      ascii;
    class       extendedFeatureEdgeMesh;
    location    "constant/extendedFeatureEdgeMesh";
    object      inlet.extendedFeatureEdgeMesh;
}
// * * * * * * * * * * * * * * * * * * * * * * * * * * * * * * * * * * * * * //

// points

148
(
(1 1 1)
(-1 1 1)
(-1 -1 1)
(1 -1 1)
(1 -1 -1)
(-1 -1 -1)
(-1 1 -1)
(1 1 -1)
(0.981158 298.444 1)
(0.981158 298.444 0)
(29.3007 311.645 1)
(29.3007 311.645 0)
(1.28402 298.8 1)
(1.28402 298.8 0)
(1.59135 299.152 1)
(1.59135 299.152 0)
(1.90312 299.501 1)
(1.90312 299.501 0)
(2.21927 299.845 1)
(2.21927 299.845 0)
(2.53975 300.186 1)
(2.53975 300.186 0)
(2.8645 300.522 1)
(2.8645 300.522 0)
(3.19348 300.854 1)
(3.19348 300.854 0)
(3.52664 301.182 1)
(3.52664 301.182 0)
(3.86391 301.506 1)
(3.86391 301.506 0)
(4.20525 301.825 1)
(4.20525 301.825 0)
(4.5506 302.14 1)
(4.5506 302.14 0)
(4.89991 302.451 1)
(4.89991 302.451 0)
(5.25312 302.757 1)
(5.25312 302.757 0)
(5.61018 303.059 1)
(5.61018 303.059 0)
(5.97102 303.356 1)
(5.97102 303.356 0)
(6.33559 303.649 1)
(6.33559 303.649 0)
(6.70383 303.937 1)
(6.70383 303.937 0)
(7.07569 304.22 1)
(7.07569 304.22 0)
(7.4511 304.499 1)
(7.4511 304.499 0)
(7.83 304.773 1)
(7.83 304.773 0)
(8.21233 305.042 1)
(8.21233 305.042 0)
(8.59803 305.306 1)
(8.59803 305.306 0)
(8.98705 305.566 1)
(8.98705 305.566 0)
(9.37931 305.82 1)
(9.37931 305.82 0)
(9.77475 306.069 1)
(9.77475 306.069 0)
(10.1733 306.314 1)
(10.1733 306.314 0)
(10.5749 306.553 1)
(10.5749 306.553 0)
(10.9796 306.787 1)
(10.9796 306.787 0)
(11.3871 307.016 1)
(11.3871 307.016 0)
(11.7975 307.24 1)
(11.7975 307.24 0)
(12.2107 307.459 1)
(12.2107 307.459 0)
(12.6267 307.672 1)
(12.6267 307.672 0)
(13.0453 307.88 1)
(13.0453 307.88 0)
(13.4665 308.083 1)
(13.4665 308.083 0)
(13.8902 308.281 1)
(13.8902 308.281 0)
(14.3164 308.473 1)
(14.3164 308.473 0)
(14.745 308.66 1)
(14.745 308.66 0)
(15.1759 308.841 1)
(15.1759 308.841 0)
(15.6091 309.017 1)
(15.6091 309.017 0)
(16.0445 309.187 1)
(16.0445 309.187 0)
(16.482 309.352 1)
(16.482 309.352 0)
(16.9215 309.511 1)
(16.9215 309.511 0)
(17.363 309.665 1)
(17.363 309.665 0)
(17.8064 309.813 1)
(17.8064 309.813 0)
(18.2517 309.956 1)
(18.2517 309.956 0)
(18.6987 310.093 1)
(18.6987 310.093 0)
(19.1475 310.224 1)
(19.1475 310.224 0)
(19.5978 310.349 1)
(19.5978 310.349 0)
(20.0497 310.469 1)
(20.0497 310.469 0)
(20.5031 310.583 1)
(20.5031 310.583 0)
(20.9579 310.692 1)
(20.9579 310.692 0)
(21.414 310.794 1)
(21.414 310.794 0)
(21.8714 310.891 1)
(21.8714 310.891 0)
(22.3299 310.982 1)
(22.3299 310.982 0)
(22.7896 311.067 1)
(22.7896 311.067 0)
(23.2503 311.147 1)
(23.2503 311.147 0)
(23.712 311.22 1)
(23.712 311.22 0)
(24.1746 311.288 1)
(24.1746 311.288 0)
(24.638 311.35 1)
(24.638 311.35 0)
(25.1021 311.406 1)
(25.1021 311.406 0)
(25.567 311.456 1)
(25.567 311.456 0)
(26.0324 311.5 1)
(26.0324 311.5 0)
(26.4983 311.539 1)
(26.4983 311.539 0)
(26.9647 311.571 1)
(26.9647 311.571 0)
(27.4314 311.598 1)
(27.4314 311.598 0)
(27.8985 311.619 1)
(27.8985 311.619 0)
(28.3658 311.633 1)
(28.3658 311.633 0)
(28.8332 311.642 1)
(28.8332 311.642 0)
)

// edges

152
(
(1 2)
(0 1)
(2 3)
(3 0)
(4 3)
(2 5)
(5 4)
(6 5)
(1 6)
(7 4)
(6 7)
(7 0)
(8 12)
(9 8)
(13 9)
(12 14)
(15 13)
(14 16)
(17 15)
(16 18)
(19 17)
(18 20)
(21 19)
(20 22)
(23 21)
(22 24)
(25 23)
(24 26)
(27 25)
(26 28)
(29 27)
(28 30)
(31 29)
(30 32)
(33 31)
(32 34)
(35 33)
(34 36)
(37 35)
(36 38)
(39 37)
(38 40)
(41 39)
(40 42)
(43 41)
(42 44)
(45 43)
(44 46)
(47 45)
(46 48)
(49 47)
(48 50)
(51 49)
(50 52)
(53 51)
(52 54)
(55 53)
(54 56)
(57 55)
(56 58)
(59 57)
(58 60)
(61 59)
(60 62)
(63 61)
(62 64)
(65 63)
(64 66)
(67 65)
(66 68)
(69 67)
(68 70)
(71 69)
(70 72)
(73 71)
(72 74)
(75 73)
(74 76)
(77 75)
(76 78)
(79 77)
(78 80)
(81 79)
(80 82)
(83 81)
(82 84)
(85 83)
(84 86)
(87 85)
(86 88)
(89 87)
(88 90)
(91 89)
(90 92)
(93 91)
(92 94)
(95 93)
(94 96)
(97 95)
(96 98)
(99 97)
(98 100)
(101 99)
(100 102)
(103 101)
(102 104)
(105 103)
(104 106)
(107 105)
(106 108)
(109 107)
(108 110)
(111 109)
(110 112)
(113 111)
(112 114)
(115 113)
(114 116)
(117 115)
(116 118)
(119 117)
(118 120)
(121 119)
(120 122)
(123 121)
(122 124)
(125 123)
(124 126)
(127 125)
(126 128)
(129 127)
(128 130)
(131 129)
(130 132)
(133 131)
(132 134)
(135 133)
(134 136)
(137 135)
(136 138)
(139 137)
(138 140)
(141 139)
(140 142)
(143 141)
(142 144)
(145 143)
(144 146)
(147 145)
(146 10)
(10 11)
(11 147)
)

// concaveStart mixedStart nonFeatureStart
8 8 12
// internalStart flatStart openStart multipleStart
12 12 12 152
// normals

150
(
(-0.761791 0.647822 0)
(-0.761791 0.647822 0)
(-0.753551 0.657389 0)
(-0.753551 0.657389 0)
(-0.745187 0.666856 0)
(-0.745187 0.666856 0)
(-0.736698 0.676222 0)
(-0.736698 0.676222 0)
(-0.728086 0.685486 0)
(-0.728086 0.685486 0)
(-0.719351 0.694647 0)
(-0.719351 0.694647 0)
(-0.710492 0.703706 0)
(-0.710492 0.703706 0)
(-0.701576 0.712595 0)
(-0.701576 0.712595 0)
(-0.692507 0.721411 0)
(-0.692507 0.721411 0)
(-0.683316 0.730123 0)
(-0.683316 0.730123 0)
(-0.674039 0.738696 0)
(-0.674039 0.738696 0)
(-0.664642 0.747162 0)
(-0.664642 0.747162 0)
(-0.655125 0.755521 0)
(-0.655125 0.755521 0)
(-0.645525 0.763739 0)
(-0.645525 0.763739 0)
(-0.635845 0.771817 0)
(-0.635845 0.771817 0)
(-0.626008 0.779817 0)
(-0.626008 0.779817 0)
(-0.61613 0.787644 0)
(-0.61613 0.787644 0)
(-0.606094 0.795393 0)
(-0.606094 0.795393 0)
(-0.595981 0.802999 0)
(-0.595981 0.802999 0)
(-0.585792 0.810461 0)
(-0.585792 0.810461 0)
(-0.575528 0.817782 0)
(-0.575528 0.817782 0)
(-0.565103 0.82502 0)
(-0.565103 0.82502 0)
(-0.554649 0.832084 0)
(-0.554649 0.832084 0)
(-0.544078 0.839035 0)
(-0.544078 0.839035 0)
(-0.533434 0.845842 0)
(-0.533434 0.845842 0)
(-0.522674 0.852533 0)
(-0.522674 0.852533 0)
(-0.511889 0.859052 0)
(-0.511889 0.859052 0)
(-0.500939 0.865483 0)
(-0.500939 0.865483 0)
(-0.489968 0.87174 0)
(-0.489968 0.87174 0)
(-0.47893 0.877853 0)
(-0.47893 0.877853 0)
(-0.467773 0.883849 0)
(-0.467773 0.883849 0)
(-0.4566 0.889672 0)
(-0.4566 0.889672 0)
(-0.44531 0.895377 0)
(-0.44531 0.895377 0)
(-0.433898 0.900962 0)
(-0.433898 0.900962 0)
(-0.422529 0.906349 0)
(-0.422529 0.906349 0)
(-0.410985 0.911642 0)
(-0.410985 0.911642 0)
(-0.399485 0.91674 0)
(-0.399485 0.91674 0)
(-0.38781 0.921739 0)
(-0.38781 0.921739 0)
(-0.376125 0.926569 0)
(-0.376125 0.926569 0)
(-0.364432 0.93123 0)
(-0.364432 0.93123 0)
(-0.352562 0.935789 0)
(-0.352562 0.935789 0)
(-0.340742 0.940157 0)
(-0.340742 0.940157 0)
(-0.328859 0.944379 0)
(-0.328859 0.944379 0)
(-0.316852 0.948475 0)
(-0.316852 0.948475 0)
(-0.30484 0.952404 0)
(-0.30484 0.952404 0)
(-0.292766 0.956184 0)
(-0.292766 0.956184 0)
(-0.280685 0.9598 0)
(-0.280685 0.9598 0)
(-0.268483 0.963284 0)
(-0.268483 0.963284 0)
(-0.256277 0.966603 0)
(-0.256277 0.966603 0)
(-0.244067 0.969758 0)
(-0.244067 0.969758 0)
(-0.231795 0.972765 0)
(-0.231795 0.972765 0)
(-0.219459 0.975622 0)
(-0.219459 0.975622 0)
(-0.207121 0.978315 0)
(-0.207121 0.978315 0)
(-0.194719 0.980859 0)
(-0.194719 0.980859 0)
(-0.182316 0.98324 0)
(-0.182316 0.98324 0)
(-0.169849 0.98547 0)
(-0.169849 0.98547 0)
(-0.157381 0.987538 0)
(-0.157381 0.987538 0)
(-0.144913 0.989444 0)
(-0.144913 0.989444 0)
(-0.13238 0.991199 0)
(-0.13238 0.991199 0)
(-0.119783 0.9928 0)
(-0.119783 0.9928 0)
(-0.107314 0.994225 0)
(-0.107314 0.994225 0)
(-0.0946508 0.995511 0)
(-0.0946508 0.995511 0)
(-0.0821176 0.996623 0)
(-0.0821176 0.996623 0)
(-0.069454 0.997585 0)
(-0.069454 0.997585 0)
(-0.0568558 0.998382 0)
(-0.0568558 0.998382 0)
(-0.0442573 0.99902 0)
(-0.0442573 0.99902 0)
(-0.0315937 0.999501 0)
(-0.0315937 0.999501 0)
(-0.0189954 0.99982 0)
(-0.0189954 0.99982 0)
(-0.0063318 0.99998 0)
(-0.0063318 0.99998 0)
(0 0 1)
(-1 0 0)
(0 1 0)
(0 0 1)
(0 -1 0)
(1 0 -0)
(1 0 0)
(0 -1 0)
(0 0 -1)
(-1 0 0)
(0 0 -1)
(0 1 0)
)

// normal volume types

150
(
0
0
0
0
0
0
0
0
0
0
0
0
0
0
0
0
0
0
0
0
0
0
0
0
0
0
0
0
0
0
0
0
0
0
0
0
0
0
0
0
0
0
0
0
0
0
0
0
0
0
0
0
0
0
0
0
0
0
0
0
0
0
0
0
0
0
0
0
0
0
0
0
0
0
0
0
0
0
0
0
0
0
0
0
0
0
0
0
0
0
0
0
0
0
0
0
0
0
0
0
0
0
0
0
0
0
0
0
0
0
0
0
0
0
0
0
0
0
0
0
0
0
0
0
0
0
0
0
0
0
0
0
0
0
0
0
0
0
0
0
0
0
0
0
0
0
0
0
0
0
)

// normalDirections

152
(
2(1 -1)
2(1 -1)
2(1 -1)
2(1 -1)
2(1 -1)
2(1 -1)
2(1 -1)
2(1 -1)
2(1 -1)
2(1 -1)
2(1 -1)
2(1 -1)
1(1)
1(1)
1(1)
1(1)
1(1)
1(1)
1(1)
1(1)
1(1)
1(1)
1(1)
1(1)
1(1)
1(1)
1(1)
1(1)
1(1)
1(1)
1(1)
1(1)
1(1)
1(1)
1(1)
1(1)
1(1)
1(1)
1(1)
1(1)
1(1)
1(1)
1(1)
1(1)
1(1)
1(1)
1(1)
1(1)
1(1)
1(1)
1(1)
1(1)
1(1)
1(1)
1(1)
1(1)
1(1)
1(1)
1(1)
1(1)
1(1)
1(1)
1(1)
1(1)
1(1)
1(1)
1(1)
1(1)
1(1)
1(1)
1(1)
1(1)
1(1)
1(1)
1(1)
1(1)
1(1)
1(1)
1(1)
1(1)
1(1)
1(1)
1(1)
1(1)
1(1)
1(1)
1(1)
1(1)
1(1)
1(1)
1(1)
1(1)
1(1)
1(1)
1(1)
1(1)
1(1)
1(1)
1(1)
1(1)
1(1)
1(1)
1(1)
1(1)
1(1)
1(1)
1(1)
1(1)
1(1)
1(1)
1(1)
1(1)
1(1)
1(1)
1(1)
1(1)
1(1)
1(1)
1(1)
1(1)
1(1)
1(1)
1(1)
1(1)
1(1)
1(1)
1(1)
1(1)
1(1)
1(1)
1(1)
1(1)
1(1)
1(1)
1(1)
1(1)
1(1)
1(1)
1(1)
1(1)
1(1)
1(1)
1(1)
1(1)
1(1)
1(1)
1(1)
1(1)
1(1)
1(1)
1(1)
1(1)
)

// edgeNormals

152
(
2(138 139)
2(138 140)
2(141 142)
2(141 143)
2(142 144)
2(145 139)
2(145 146)
2(147 146)
2(147 140)
2(148 144)
2(148 149)
2(143 149)
1(0)
1(0)
1(1)
1(2)
1(3)
1(4)
1(5)
1(6)
1(7)
1(8)
1(9)
1(10)
1(11)
1(12)
1(13)
1(14)
1(15)
1(16)
1(17)
1(18)
1(19)
1(20)
1(21)
1(22)
1(23)
1(24)
1(25)
1(26)
1(27)
1(28)
1(29)
1(30)
1(31)
1(32)
1(33)
1(34)
1(35)
1(36)
1(37)
1(38)
1(39)
1(40)
1(41)
1(42)
1(43)
1(44)
1(45)
1(46)
1(47)
1(48)
1(49)
1(50)
1(51)
1(52)
1(53)
1(54)
1(55)
1(56)
1(57)
1(58)
1(59)
1(60)
1(61)
1(62)
1(63)
1(64)
1(65)
1(66)
1(67)
1(68)
1(69)
1(70)
1(71)
1(72)
1(73)
1(74)
1(75)
1(76)
1(77)
1(78)
1(79)
1(80)
1(81)
1(82)
1(83)
1(84)
1(85)
1(86)
1(87)
1(88)
1(89)
1(90)
1(91)
1(92)
1(93)
1(94)
1(95)
1(96)
1(97)
1(98)
1(99)
1(100)
1(101)
1(102)
1(103)
1(104)
1(105)
1(106)
1(107)
1(108)
1(109)
1(110)
1(111)
1(112)
1(113)
1(114)
1(115)
1(116)
1(117)
1(118)
1(119)
1(120)
1(121)
1(122)
1(123)
1(124)
1(125)
1(126)
1(127)
1(128)
1(129)
1(130)
1(131)
1(132)
1(133)
1(134)
1(135)
1(136)
1(137)
1(137)
)

// featurePointNormals

12
(
3(138 140 143)
3(138 139 140)
3(138 139 142)
3(141 142 143)
3(142 144 146)
3(145 139 146)
3(147 146 140)
3(148 144 149)
1(0)
1(0)
1(136)
1(137)
)

// featurePointEdges

12
(
3(3 11 1)
3(0 8 1)
3(2 5 0)
3(2 4 3)
3(6 9 4)
3(5 7 6)
3(7 10 8)
3(9 11 10)
2(12 13)
2(13 14)
2(149 150)
2(150 151)
)

// regionEdges

140
(
12
13
14
15
16
17
18
19
20
21
22
23
24
25
26
27
28
29
30
31
32
33
34
35
36
37
38
39
40
41
42
43
44
45
46
47
48
49
50
51
52
53
54
55
56
57
58
59
60
61
62
63
64
65
66
67
68
69
70
71
72
73
74
75
76
77
78
79
80
81
82
83
84
85
86
87
88
89
90
91
92
93
94
95
96
97
98
99
100
101
102
103
104
105
106
107
108
109
110
111
112
113
114
115
116
117
118
119
120
121
122
123
124
125
126
127
128
129
130
131
132
133
134
135
136
137
138
139
140
141
142
143
144
145
146
147
148
149
150
151
)



// ************************************************************************* //
