/*--------------------------------*- C++ -*----------------------------------*\
  =========                 |
  \\      /  F ield         | OpenFOAM: The Open Source CFD Toolbox
   \\    /   O peration     | Website:  https://openfoam.org
    \\  /    A nd           | Version:  10
     \\/     M anipulation  |
\*---------------------------------------------------------------------------*/
FoamFile
{
    format      ascii;
    class       extendedFeatureEdgeMesh;
    location    "constant/extendedFeatureEdgeMesh";
    object      lake_top.extendedFeatureEdgeMesh;
}
// * * * * * * * * * * * * * * * * * * * * * * * * * * * * * * * * * * * * * //

// points

408
(
(1 1 1)
(-1 1 1)
(-1 -1 1)
(1 -1 1)
(1 -1 -1)
(-1 -1 -1)
(-1 1 -1)
(1 1 -1)
(15.1003 22.3131 1.001)
(34.3817 3.03168 1.001)
(34.5586 2.85901 1.001)
(34.7395 2.69059 1.001)
(34.9243 2.52653 1.001)
(35.113 2.36691 1.001)
(35.3055 2.21183 1.001)
(35.5015 2.06137 1.001)
(35.7011 1.91562 1.001)
(35.9042 1.77466 1.001)
(36.1105 1.63857 1.001)
(36.32 1.50743 1.001)
(36.5325 1.38132 1.001)
(36.748 1.2603 1.001)
(36.9663 1.14444 1.001)
(37.1874 1.03381 1.001)
(37.4109 0.928467 1.001)
(37.637 0.828477 1.001)
(37.8653 0.733895 1.001)
(38.0958 0.644774 1.001)
(38.3284 0.561164 1.001)
(38.5629 0.483112 1.001)
(38.7992 0.410663 1.001)
(39.0372 0.343858 1.001)
(39.2767 0.282735 1.001)
(39.5175 0.227329 1.001)
(39.7596 0.17767 1.001)
(40.0029 0.133786 1.001)
(40.2471 0.0957038 1.001)
(40.4921 0.0634435 1.001)
(40.7378 0.0370238 1.001)
(40.9841 0.0164597 1.001)
(41.2309 0.00176262 1.001)
(41.4779 -0.00705893 1.001)
(41.725 -0.01 1.001)
(293.488 346.319 1.001)
(79.5546 308.931 1.001)
(396.816 -0.01 1.001)
(8.99581 35.4085 1.001)
(9.02923 35.059 1.001)
(9.06846 34.7101 1.001)
(397.393 -0.00719801 1.001)
(440.496 22.3221 1.001)
(447.134 268.91 1.001)
(422.518 295.019 1.001)
(422.005 295.319 1.001)
(423.028 294.714 1.001)
(397.969 0.00120769 1.001)
(398.545 0.0152163 1.001)
(399.122 0.0348265 1.001)
(399.698 0.0600365 1.001)
(400.273 0.0908438 1.001)
(400.849 0.127246 1.001)
(401.424 0.169238 1.001)
(401.998 0.216818 1.001)
(402.572 0.26998 1.001)
(403.146 0.32872 1.001)
(424.397 5.1888 1.001)
(439.044 19.0681 1.001)
(417.123 1.82893 1.001)
(424.198 5.00396 1.001)
(417.393 1.86087 1.001)
(417.662 1.89867 1.001)
(417.931 1.94231 1.001)
(418.198 1.99177 1.001)
(418.464 2.04702 1.001)
(418.729 2.10804 1.001)
(418.993 2.1748 1.001)
(419.255 2.24726 1.001)
(419.515 2.3254 1.001)
(419.774 2.40918 1.001)
(420.03 2.49855 1.001)
(420.285 2.59348 1.001)
(420.538 2.69391 1.001)
(420.788 2.79981 1.001)
(421.036 2.91113 1.001)
(421.282 3.0278 1.001)
(421.525 3.14978 1.001)
(421.765 3.277 1.001)
(422.002 3.40942 1.001)
(422.237 3.54696 1.001)
(422.468 3.68955 1.001)
(422.697 3.83715 1.001)
(422.922 3.98966 1.001)
(423.143 4.14703 1.001)
(423.362 4.30917 1.001)
(423.576 4.47602 1.001)
(423.787 4.64748 1.001)
(423.994 4.82349 1.001)
(439.163 19.1845 1.001)
(439.277 19.3051 1.001)
(439.387 19.4297 1.001)
(439.493 19.5582 1.001)
(439.593 19.6903 1.001)
(439.689 19.826 1.001)
(439.781 19.965 1.001)
(439.867 20.1071 1.001)
(439.948 20.2522 1.001)
(440.023 20.4002 1.001)
(440.094 20.5507 1.001)
(440.159 20.7037 1.001)
(440.218 20.8588 1.001)
(440.272 21.016 1.001)
(440.32 21.1751 1.001)
(440.363 21.3357 1.001)
(440.4 21.4978 1.001)
(440.431 21.6611 1.001)
(440.456 21.8253 1.001)
(440.475 21.9904 1.001)
(440.488 22.156 1.001)
(447.137 269.14 1.001)
(447.135 269.37 1.001)
(447.127 269.6 1.001)
(447.113 269.829 1.001)
(447.094 270.059 1.001)
(447.069 270.287 1.001)
(447.039 270.515 1.001)
(447.003 270.742 1.001)
(446.961 270.969 1.001)
(446.914 271.194 1.001)
(446.861 271.417 1.001)
(446.802 271.64 1.001)
(446.739 271.861 1.001)
(446.67 272.08 1.001)
(446.595 272.298 1.001)
(446.515 272.514 1.001)
(446.43 272.727 1.001)
(446.34 272.939 1.001)
(446.244 273.148 1.001)
(446.143 273.355 1.001)
(446.038 273.559 1.001)
(445.927 273.761 1.001)
(445.811 273.96 1.001)
(445.691 274.155 1.001)
(445.565 274.348 1.001)
(445.435 274.538 1.001)
(445.301 274.725 1.001)
(445.161 274.908 1.001)
(445.018 275.087 1.001)
(444.87 275.263 1.001)
(444.717 275.436 1.001)
(444.561 275.604 1.001)
(444.4 275.769 1.001)
(434.235 285.934 1.001)
(433.812 286.353 1.001)
(433.385 286.767 1.001)
(432.954 287.177 1.001)
(432.519 287.582 1.001)
(432.08 287.983 1.001)
(431.637 288.379 1.001)
(431.19 288.772 1.001)
(430.739 289.159 1.001)
(430.284 289.542 1.001)
(429.826 289.92 1.001)
(429.363 290.294 1.001)
(428.897 290.663 1.001)
(428.427 291.027 1.001)
(427.954 291.387 1.001)
(427.477 291.742 1.001)
(426.996 292.092 1.001)
(426.512 292.437 1.001)
(426.024 292.777 1.001)
(425.533 293.113 1.001)
(425.039 293.443 1.001)
(424.541 293.768 1.001)
(424.04 294.089 1.001)
(423.536 294.404 1.001)
(334.131 346.053 1.001)
(310.742 347.815 1.001)
(309.988 347.812 1.001)
(333.891 346.188 1.001)
(333.648 346.318 1.001)
(333.403 346.443 1.001)
(333.155 346.563 1.001)
(332.904 346.678 1.001)
(332.651 346.787 1.001)
(332.396 346.891 1.001)
(332.139 346.99 1.001)
(331.88 347.083 1.001)
(331.619 347.171 1.001)
(331.356 347.254 1.001)
(331.091 347.33 1.001)
(330.825 347.402 1.001)
(330.558 347.467 1.001)
(330.289 347.528 1.001)
(330.019 347.582 1.001)
(329.748 347.631 1.001)
(329.476 347.674 1.001)
(329.203 347.711 1.001)
(328.929 347.743 1.001)
(328.655 347.769 1.001)
(328.38 347.789 1.001)
(328.105 347.803 1.001)
(327.83 347.812 1.001)
(327.554 347.815 1.001)
(309.235 347.804 1.001)
(308.481 347.789 1.001)
(307.727 347.77 1.001)
(306.973 347.744 1.001)
(306.22 347.713 1.001)
(305.467 347.676 1.001)
(304.714 347.634 1.001)
(303.962 347.585 1.001)
(303.21 347.532 1.001)
(302.458 347.472 1.001)
(301.707 347.407 1.001)
(300.956 347.336 1.001)
(300.206 347.26 1.001)
(299.457 347.178 1.001)
(298.708 347.09 1.001)
(297.96 346.997 1.001)
(297.212 346.898 1.001)
(296.466 346.793 1.001)
(295.72 346.683 1.001)
(294.975 346.567 1.001)
(294.231 346.446 1.001)
(79.1435 308.862 1.001)
(78.7315 308.798 1.001)
(78.3187 308.741 1.001)
(77.9051 308.688 1.001)
(77.4909 308.642 1.001)
(77.076 308.601 1.001)
(76.6607 308.566 1.001)
(76.2449 308.536 1.001)
(75.8287 308.512 1.001)
(75.4123 308.494 1.001)
(-11.9746 275.793 1.001)
(74.9957 308.481 1.001)
(74.5789 308.474 1.001)
(74.162 308.473 1.001)
(73.7452 308.477 1.001)
(73.3285 308.487 1.001)
(72.912 308.503 1.001)
(48.2866 309.597 1.001)
(47.8795 309.618 1.001)
(47.4727 309.645 1.001)
(47.0663 309.678 1.001)
(46.6605 309.716 1.001)
(46.2552 309.761 1.001)
(45.8507 309.811 1.001)
(45.4469 309.868 1.001)
(45.044 309.93 1.001)
(44.642 309.998 1.001)
(44.2411 310.072 1.001)
(43.8412 310.151 1.001)
(43.4426 310.237 1.001)
(0.981924 298.443 1.001)
(-8.32526 287.357 1.001)
(43.0452 310.328 1.001)
(42.6492 310.425 1.001)
(42.2547 310.527 1.001)
(38.0869 311.644 1.001)
(29.3007 311.644 1.001)
(28.8332 311.641 1.001)
(28.3658 311.632 1.001)
(27.8985 311.618 1.001)
(27.4315 311.597 1.001)
(26.9647 311.57 1.001)
(26.4984 311.538 1.001)
(26.0325 311.499 1.001)
(25.5671 311.455 1.001)
(25.1022 311.405 1.001)
(24.6381 311.349 1.001)
(24.1747 311.287 1.001)
(23.7122 311.219 1.001)
(23.2505 311.146 1.001)
(22.7898 311.066 1.001)
(22.3301 310.981 1.001)
(21.8716 310.89 1.001)
(21.4142 310.793 1.001)
(20.9581 310.691 1.001)
(20.5033 310.582 1.001)
(20.05 310.468 1.001)
(19.5981 310.348 1.001)
(19.1477 310.223 1.001)
(18.699 310.092 1.001)
(18.252 309.955 1.001)
(17.8068 309.812 1.001)
(17.3633 309.664 1.001)
(16.9218 309.51 1.001)
(16.4823 309.351 1.001)
(16.0448 309.186 1.001)
(15.6095 309.016 1.001)
(15.1763 308.84 1.001)
(14.7454 308.659 1.001)
(14.3168 308.472 1.001)
(13.8906 308.28 1.001)
(13.4669 308.082 1.001)
(13.0457 307.88 1.001)
(12.6271 307.671 1.001)
(12.2112 307.458 1.001)
(11.798 307.239 1.001)
(11.3876 307.015 1.001)
(10.9801 306.786 1.001)
(10.5754 306.552 1.001)
(10.1738 306.313 1.001)
(9.77528 306.068 1.001)
(9.37985 305.819 1.001)
(8.9876 305.565 1.001)
(8.59859 305.305 1.001)
(8.2129 305.041 1.001)
(7.83058 304.772 1.001)
(7.45169 304.498 1.001)
(7.07629 304.22 1.001)
(6.70444 303.936 1.001)
(6.33621 303.648 1.001)
(5.97165 303.356 1.001)
(5.61082 303.058 1.001)
(5.25377 302.757 1.001)
(4.90057 302.45 1.001)
(4.55127 302.14 1.001)
(4.20593 301.824 1.001)
(3.8646 301.505 1.001)
(3.52733 301.181 1.001)
(3.19419 300.853 1.001)
(2.86522 300.521 1.001)
(2.54047 300.185 1.001)
(2.22 299.844 1.001)
(1.90386 299.5 1.001)
(1.5921 299.152 1.001)
(1.28477 298.799 1.001)
(-8.51817 287.123 1.001)
(-8.70655 286.885 1.001)
(-8.89035 286.643 1.001)
(-9.06948 286.398 1.001)
(-9.24389 286.15 1.001)
(-9.41351 285.898 1.001)
(-9.57827 285.643 1.001)
(-9.73813 285.385 1.001)
(-9.89301 285.124 1.001)
(-10.0429 284.86 1.001)
(-10.1876 284.594 1.001)
(-10.3273 284.324 1.001)
(-10.4617 284.052 1.001)
(-10.5909 283.777 1.001)
(-10.7149 283.5 1.001)
(-10.8335 283.221 1.001)
(-10.9467 282.939 1.001)
(-11.0545 282.656 1.001)
(-11.1568 282.37 1.001)
(-11.2537 282.082 1.001)
(-11.345 281.793 1.001)
(-11.4308 281.502 1.001)
(-11.511 281.209 1.001)
(-11.5856 280.915 1.001)
(-11.6545 280.619 1.001)
(-11.7177 280.322 1.001)
(-11.7753 280.024 1.001)
(-11.8271 279.725 1.001)
(-11.8732 279.425 1.001)
(-11.9135 279.125 1.001)
(-11.9481 278.823 1.001)
(-11.9768 278.521 1.001)
(-11.9998 278.218 1.001)
(-12.017 277.915 1.001)
(-12.0284 277.612 1.001)
(-12.034 277.309 1.001)
(-12.0337 277.005 1.001)
(-12.0276 276.702 1.001)
(-12.0158 276.398 1.001)
(-11.9981 276.095 1.001)
(9.11348 34.3619 1.001)
(9.16428 34.0145 1.001)
(9.22086 33.668 1.001)
(9.28319 33.3225 1.001)
(9.35125 32.978 1.001)
(9.42504 32.6348 1.001)
(9.50451 32.2928 1.001)
(9.58967 31.9522 1.001)
(9.68048 31.613 1.001)
(9.77691 31.2754 1.001)
(9.87894 30.9395 1.001)
(9.98655 30.6053 1.001)
(10.0997 30.2729 1.001)
(10.2184 29.9425 1.001)
(10.3425 29.6141 1.001)
(10.4721 29.2878 1.001)
(10.6071 28.9637 1.001)
(10.7474 28.6419 1.001)
(10.8931 28.3224 1.001)
(11.0441 28.0054 1.001)
(11.2003 27.691 1.001)
(11.3617 27.3792 1.001)
(11.5283 27.0702 1.001)
(11.7001 26.764 1.001)
(11.8768 26.4606 1.001)
(12.0586 26.1603 1.001)
(12.2454 25.863 1.001)
(12.4371 25.5688 1.001)
(12.6336 25.2779 1.001)
(12.835 24.9903 1.001)
(13.0411 24.7061 1.001)
(13.2519 24.4253 1.001)
(13.4674 24.1481 1.001)
(13.6874 23.8745 1.001)
(13.912 23.6046 1.001)
(14.141 23.3385 1.001)
(14.3744 23.0762 1.001)
(14.6121 22.8178 1.001)
(14.8541 22.5634 1.001)
)

// edges

412
(
(1 2)
(0 1)
(2 3)
(3 0)
(4 3)
(2 5)
(5 4)
(6 5)
(1 6)
(7 4)
(6 7)
(7 0)
(8 9)
(9 10)
(10 11)
(11 12)
(12 13)
(13 14)
(14 15)
(15 16)
(16 17)
(17 18)
(18 19)
(19 20)
(20 21)
(21 22)
(22 23)
(23 24)
(24 25)
(25 26)
(26 27)
(27 28)
(28 29)
(29 30)
(30 31)
(31 32)
(32 33)
(33 34)
(34 35)
(35 36)
(36 37)
(37 38)
(38 39)
(39 40)
(40 41)
(41 42)
(43 44)
(42 45)
(46 47)
(47 48)
(45 49)
(50 51)
(52 53)
(54 52)
(49 55)
(55 56)
(56 57)
(57 58)
(58 59)
(59 60)
(60 61)
(61 62)
(62 63)
(63 64)
(65 66)
(64 67)
(68 65)
(69 70)
(67 69)
(70 71)
(71 72)
(72 73)
(73 74)
(74 75)
(75 76)
(76 77)
(77 78)
(78 79)
(79 80)
(80 81)
(81 82)
(82 83)
(83 84)
(84 85)
(85 86)
(86 87)
(87 88)
(88 89)
(89 90)
(90 91)
(91 92)
(92 93)
(93 94)
(94 95)
(95 96)
(96 68)
(97 98)
(66 97)
(98 99)
(99 100)
(100 101)
(101 102)
(102 103)
(103 104)
(104 105)
(105 106)
(106 107)
(107 108)
(108 109)
(109 110)
(110 111)
(111 112)
(112 113)
(113 114)
(114 115)
(115 116)
(116 117)
(117 50)
(118 119)
(51 118)
(119 120)
(120 121)
(121 122)
(122 123)
(123 124)
(124 125)
(125 126)
(126 127)
(127 128)
(128 129)
(129 130)
(130 131)
(131 132)
(132 133)
(133 134)
(134 135)
(135 136)
(136 137)
(137 138)
(138 139)
(139 140)
(140 141)
(141 142)
(142 143)
(143 144)
(144 145)
(145 146)
(146 147)
(147 148)
(148 149)
(149 150)
(150 151)
(152 153)
(151 152)
(153 154)
(154 155)
(155 156)
(156 157)
(157 158)
(158 159)
(159 160)
(160 161)
(161 162)
(162 163)
(163 164)
(164 165)
(165 166)
(166 167)
(167 168)
(168 169)
(169 170)
(170 171)
(171 172)
(172 173)
(173 174)
(174 54)
(53 175)
(176 177)
(178 179)
(175 178)
(179 180)
(180 181)
(181 182)
(182 183)
(183 184)
(184 185)
(185 186)
(186 187)
(187 188)
(188 189)
(189 190)
(190 191)
(191 192)
(192 193)
(193 194)
(194 195)
(195 196)
(196 197)
(197 198)
(198 199)
(199 200)
(200 201)
(201 202)
(202 176)
(177 203)
(203 204)
(204 205)
(205 206)
(206 207)
(207 208)
(208 209)
(209 210)
(210 211)
(211 212)
(212 213)
(213 214)
(214 215)
(215 216)
(216 217)
(217 218)
(218 219)
(219 220)
(220 221)
(221 222)
(222 223)
(223 43)
(44 224)
(224 225)
(225 226)
(226 227)
(227 228)
(228 229)
(229 230)
(230 231)
(231 232)
(232 233)
(234 46)
(233 235)
(235 236)
(236 237)
(237 238)
(238 239)
(239 240)
(240 241)
(241 242)
(242 243)
(243 244)
(244 245)
(245 246)
(246 247)
(247 248)
(248 249)
(249 250)
(250 251)
(251 252)
(252 253)
(254 255)
(253 256)
(256 257)
(257 258)
(258 259)
(259 260)
(260 261)
(261 262)
(262 263)
(263 264)
(264 265)
(265 266)
(266 267)
(267 268)
(268 269)
(269 270)
(270 271)
(271 272)
(272 273)
(273 274)
(274 275)
(275 276)
(276 277)
(277 278)
(278 279)
(279 280)
(280 281)
(281 282)
(282 283)
(283 284)
(284 285)
(285 286)
(286 287)
(287 288)
(288 289)
(289 290)
(290 291)
(291 292)
(292 293)
(293 294)
(294 295)
(295 296)
(296 297)
(297 298)
(298 299)
(299 300)
(300 301)
(301 302)
(302 303)
(303 304)
(304 305)
(305 306)
(306 307)
(307 308)
(308 309)
(309 310)
(310 311)
(311 312)
(312 313)
(313 314)
(314 315)
(315 316)
(316 317)
(317 318)
(318 319)
(319 320)
(320 321)
(321 322)
(322 323)
(323 324)
(324 325)
(325 326)
(326 327)
(327 328)
(328 254)
(255 329)
(329 330)
(330 331)
(331 332)
(332 333)
(333 334)
(334 335)
(335 336)
(336 337)
(337 338)
(338 339)
(339 340)
(340 341)
(341 342)
(342 343)
(343 344)
(344 345)
(345 346)
(346 347)
(347 348)
(348 349)
(349 350)
(350 351)
(351 352)
(352 353)
(353 354)
(354 355)
(355 356)
(356 357)
(357 358)
(358 359)
(359 360)
(360 361)
(361 362)
(362 363)
(363 364)
(364 365)
(365 366)
(366 367)
(367 368)
(368 234)
(48 369)
(369 370)
(370 371)
(371 372)
(372 373)
(373 374)
(374 375)
(375 376)
(376 377)
(377 378)
(378 379)
(379 380)
(380 381)
(381 382)
(382 383)
(383 384)
(384 385)
(385 386)
(386 387)
(387 388)
(388 389)
(389 390)
(390 391)
(391 392)
(392 393)
(393 394)
(394 395)
(395 396)
(396 397)
(397 398)
(398 399)
(399 400)
(400 401)
(401 402)
(402 403)
(403 404)
(404 405)
(405 406)
(406 407)
(407 8)
)

// concaveStart mixedStart nonFeatureStart
8 8 8
// internalStart flatStart openStart multipleStart
12 12 12 412
// normals

400
(
(0 0 1)
(0 0 1)
(0 0 1)
(0 0 1)
(0 0 1)
(0 0 1)
(0 0 1)
(0 0 1)
(0 0 1)
(0 0 1)
(0 0 1)
(0 0 1)
(0 0 1)
(0 0 1)
(0 0 1)
(0 0 1)
(0 0 1)
(0 0 1)
(0 0 1)
(0 0 1)
(0 0 1)
(0 0 1)
(0 0 1)
(0 0 1)
(0 0 1)
(0 0 1)
(0 0 1)
(0 0 1)
(0 0 1)
(0 0 1)
(0 0 1)
(0 0 1)
(0 0 1)
(0 0 1)
(0 0 1)
(0 0 1)
(0 0 1)
(0 -0 1)
(0 0 1)
(0 0 1)
(0 0 1)
(0 0 1)
(0 0 1)
(0 0 1)
(0 0 1)
(0 0 1)
(0 0 1)
(0 0 1)
(0 0 1)
(0 0 1)
(0 0 1)
(0 0 1)
(0 0 1)
(0 0 1)
(0 -0 1)
(0 0 1)
(0 0 1)
(0 -0 1)
(0 0 1)
(0 0 1)
(0 -0 1)
(0 0 1)
(0 0 1)
(0 -0 1)
(0 0 1)
(0 0 1)
(0 -0 1)
(0 0 1)
(0 0 1)
(0 -0 1)
(0 0 1)
(0 0 1)
(0 -0 1)
(0 0 1)
(0 0 1)
(0 -0 1)
(0 0 1)
(0 0 1)
(0 -0 1)
(0 0 1)
(0 0 1)
(0 -0 1)
(0 -0 1)
(0 0 1)
(0 0 1)
(0 -0 1)
(0 0 1)
(0 0 1)
(0 -0 1)
(0 0 1)
(0 0 1)
(0 -0 1)
(0 0 1)
(0 0 1)
(0 -0 1)
(0 0 1)
(0 0 1)
(0 -0 1)
(0 0 1)
(0 0 1)
(0 -0 1)
(0 0 1)
(0 0 1)
(0 0 1)
(0 -0 1)
(0 0 1)
(0 0 1)
(0 0 1)
(0 0 1)
(0 0 1)
(0 0 1)
(0 0 1)
(0 0 1)
(0 0 1)
(0 0 1)
(0 0 1)
(0 0 1)
(0 0 1)
(0 0 1)
(0 0 1)
(0 0 1)
(0 0 1)
(0 0 1)
(0 0 1)
(0 0 1)
(0 0 1)
(0 0 1)
(0 0 1)
(0 0 1)
(0 0 1)
(0 0 1)
(0 0 1)
(0 0 1)
(0 0 1)
(0 0 1)
(0 0 1)
(0 0 1)
(0 0 1)
(0 0 1)
(0 0 1)
(0 0 1)
(0 0 1)
(0 0 1)
(0 0 1)
(0 0 1)
(0 0 1)
(0 0 1)
(0 0 1)
(0 0 1)
(0 0 1)
(0 0 1)
(0 0 1)
(0 0 1)
(0 0 1)
(0 0 1)
(0 0 1)
(0 0 1)
(0 0 1)
(0 0 1)
(0 0 1)
(0 0 1)
(0 0 1)
(0 0 1)
(0 0 1)
(0 0 1)
(0 0 1)
(0 0 1)
(0 0 1)
(0 0 1)
(0 0 1)
(0 0 1)
(0 0 1)
(0 0 1)
(0 0 1)
(0 0 1)
(0 0 1)
(0 0 1)
(0 0 1)
(0 0 1)
(0 0 1)
(0 0 1)
(0 0 1)
(0 0 1)
(0 0 1)
(0 0 1)
(0 0 1)
(0 0 1)
(0 0 1)
(0 0 1)
(0 0 1)
(0 0 1)
(0 0 1)
(0 0 1)
(0 0 1)
(0 0 1)
(0 0 1)
(0 0 1)
(0 0 1)
(0 0 1)
(0 0 1)
(0 0 1)
(0 0 1)
(0 0 1)
(0 0 1)
(0 0 1)
(0 0 1)
(0 0 1)
(0 0 1)
(0 0 1)
(0 0 1)
(0 0 1)
(0 0 1)
(0 0 1)
(0 0 1)
(0 0 1)
(0 0 1)
(0 0 1)
(0 -0 1)
(0 0 1)
(0 0 1)
(0 0 1)
(0 0 1)
(0 0 1)
(0 0 1)
(0 0 1)
(0 0 1)
(0 0 1)
(0 0 1)
(0 0 1)
(0 0 1)
(0 0 1)
(0 0 1)
(0 0 1)
(0 0 1)
(0 0 1)
(0 0 1)
(0 0 1)
(0 0 1)
(0 0 1)
(0 0 1)
(0 0 1)
(-0 0 1)
(0 0 1)
(0 0 1)
(0 0 1)
(0 0 1)
(0 0 1)
(0 0 1)
(0 0 1)
(0 0 1)
(0 0 1)
(0 0 1)
(0 0 1)
(0 0 1)
(0 0 1)
(0 0 1)
(0 0 1)
(0 0 1)
(0 0 1)
(0 0 1)
(0 0 1)
(0 0 1)
(0 0 1)
(0 0 1)
(0 0 1)
(0 0 1)
(0 0 1)
(0 0 1)
(0 0 1)
(0 0 1)
(0 0 1)
(0 0 1)
(0 0 1)
(0 0 1)
(0 0 1)
(0 0 1)
(0 0 1)
(0 0 1)
(0 0 1)
(0 0 1)
(0 0 1)
(0 0 1)
(0 0 1)
(0 0 1)
(0 0 1)
(0 0 1)
(0 0 1)
(0 0 1)
(0 0 1)
(0 0 1)
(0 0 1)
(0 0 1)
(0 0 1)
(0 0 1)
(0 0 1)
(0 0 1)
(0 0 1)
(0 0 1)
(0 0 1)
(0 0 1)
(0 0 1)
(0 0 1)
(0 0 1)
(0 0 1)
(0 0 1)
(0 0 1)
(0 0 1)
(0 0 1)
(0 0 1)
(0 0 1)
(0 0 1)
(0 0 1)
(0 0 1)
(0 0 1)
(0 0 1)
(0 0 1)
(0 0 1)
(0 0 1)
(0 0 1)
(0 0 1)
(0 0 1)
(0 0 1)
(0 0 1)
(0 0 1)
(0 0 1)
(0 0 1)
(0 0 1)
(0 0 1)
(0 0 1)
(0 0 1)
(0 0 1)
(0 0 1)
(0 0 1)
(0 0 1)
(0 0 1)
(0 0 1)
(0 0 1)
(0 0 1)
(0 0 1)
(0 0 1)
(0 -0 1)
(0 0 1)
(0 0 1)
(0 0 1)
(0 0 1)
(0 0 1)
(0 0 1)
(0 0 1)
(0 0 1)
(0 0 1)
(0 0 1)
(0 0 1)
(0 0 1)
(0 0 1)
(0 0 1)
(0 0 1)
(0 0 1)
(0 0 1)
(0 0 1)
(0 0 1)
(0 0 1)
(0 0 1)
(0 0 1)
(0 0 1)
(0 0 1)
(0 0 1)
(0 0 1)
(0 0 1)
(0 0 1)
(0 0 1)
(0 0 1)
(0 0 1)
(0 0 1)
(0 0 1)
(0 0 1)
(0 0 1)
(0 0 1)
(0 0 1)
(0 0 1)
(0 0 1)
(0 0 1)
(0 0 1)
(0 0 1)
(0 0 1)
(0 0 1)
(0 0 1)
(0 0 1)
(0 0 1)
(0 0 1)
(-1 0 0)
(0 1 0)
(0 0 1)
(0 -1 0)
(1 0 -0)
(1 0 0)
(0 -1 0)
(0 0 -1)
(-1 0 0)
(0 0 -1)
(0 1 0)
)

// normal volume types

400
(
0
0
0
0
0
0
0
0
0
0
0
0
0
0
0
0
0
0
0
0
0
0
0
0
0
0
0
0
0
0
0
0
0
0
0
0
0
0
0
0
0
0
0
0
0
0
0
0
0
0
0
0
0
0
0
0
0
0
0
0
0
0
0
0
0
0
0
0
0
0
0
0
0
0
0
0
0
0
0
0
0
0
0
0
0
0
0
0
0
0
0
0
0
0
0
0
0
0
0
0
0
0
0
0
0
0
0
0
0
0
0
0
0
0
0
0
0
0
0
0
0
0
0
0
0
0
0
0
0
0
0
0
0
0
0
0
0
0
0
0
0
0
0
0
0
0
0
0
0
0
0
0
0
0
0
0
0
0
0
0
0
0
0
0
0
0
0
0
0
0
0
0
0
0
0
0
0
0
0
0
0
0
0
0
0
0
0
0
0
0
0
0
0
0
0
0
0
0
0
0
0
0
0
0
0
0
0
0
0
0
0
0
0
0
0
0
0
0
0
0
0
0
0
0
0
0
0
0
0
0
0
0
0
0
0
0
0
0
0
0
0
0
0
0
0
0
0
0
0
0
0
0
0
0
0
0
0
0
0
0
0
0
0
0
0
0
0
0
0
0
0
0
0
0
0
0
0
0
0
0
0
0
0
0
0
0
0
0
0
0
0
0
0
0
0
0
0
0
0
0
0
0
0
0
0
0
0
0
0
0
0
0
0
0
0
0
0
0
0
0
0
0
0
0
0
0
0
0
0
0
0
0
0
0
0
0
0
0
0
0
0
0
0
0
0
0
0
0
0
0
0
0
0
0
0
0
0
0
0
0
0
0
0
0
0
0
0
0
0
0
0
0
0
0
0
0
0
0
0
0
0
0
0
0
0
0
0
0
0
0
0
0
0
0
0
0
0
0
0
0
)

// normalDirections

412
(
2(1 -1)
2(1 -1)
2(1 -1)
2(1 -1)
2(1 -1)
2(1 -1)
2(1 -1)
2(1 -1)
2(1 -1)
2(1 -1)
2(1 -1)
2(1 -1)
1(1)
1(1)
1(1)
1(1)
1(1)
1(1)
1(1)
1(1)
1(1)
1(1)
1(1)
1(1)
1(1)
1(1)
1(1)
1(1)
1(1)
1(1)
1(1)
1(1)
1(1)
1(1)
1(1)
1(1)
1(1)
1(1)
1(1)
1(1)
1(1)
1(1)
1(1)
1(1)
1(1)
1(1)
1(1)
1(1)
1(1)
1(1)
1(1)
1(1)
1(1)
1(1)
1(1)
1(1)
1(1)
1(1)
1(1)
1(1)
1(1)
1(1)
1(1)
1(1)
1(1)
1(1)
1(1)
1(1)
1(1)
1(1)
1(1)
1(1)
1(1)
1(1)
1(1)
1(1)
1(1)
1(1)
1(1)
1(1)
1(1)
1(1)
1(1)
1(1)
1(1)
1(1)
1(1)
1(1)
1(1)
1(1)
1(1)
1(1)
1(1)
1(1)
1(1)
1(1)
1(1)
1(1)
1(1)
1(1)
1(1)
1(1)
1(1)
1(1)
1(1)
1(1)
1(1)
1(1)
1(1)
1(1)
1(1)
1(1)
1(1)
1(1)
1(1)
1(1)
1(1)
1(1)
1(1)
1(1)
1(1)
1(1)
1(1)
1(1)
1(1)
1(1)
1(1)
1(1)
1(1)
1(1)
1(1)
1(1)
1(1)
1(1)
1(1)
1(1)
1(1)
1(1)
1(1)
1(1)
1(1)
1(1)
1(1)
1(1)
1(1)
1(1)
1(1)
1(1)
1(1)
1(1)
1(1)
1(1)
1(1)
1(1)
1(1)
1(1)
1(1)
1(1)
1(1)
1(1)
1(1)
1(1)
1(1)
1(1)
1(1)
1(1)
1(1)
1(1)
1(1)
1(1)
1(1)
1(1)
1(1)
1(1)
1(1)
1(1)
1(1)
1(1)
1(1)
1(1)
1(1)
1(1)
1(1)
1(1)
1(1)
1(1)
1(1)
1(1)
1(1)
1(1)
1(1)
1(1)
1(1)
1(1)
1(1)
1(1)
1(1)
1(1)
1(1)
1(1)
1(1)
1(1)
1(1)
1(1)
1(1)
1(1)
1(1)
1(1)
1(1)
1(1)
1(1)
1(1)
1(1)
1(1)
1(1)
1(1)
1(1)
1(1)
1(1)
1(1)
1(1)
1(1)
1(1)
1(1)
1(1)
1(1)
1(1)
1(1)
1(1)
1(1)
1(1)
1(1)
1(1)
1(1)
1(1)
1(1)
1(1)
1(1)
1(1)
1(1)
1(1)
1(1)
1(1)
1(1)
1(1)
1(1)
1(1)
1(1)
1(1)
1(1)
1(1)
1(1)
1(1)
1(1)
1(1)
1(1)
1(1)
1(1)
1(1)
1(1)
1(1)
1(1)
1(1)
1(1)
1(1)
1(1)
1(1)
1(1)
1(1)
1(1)
1(1)
1(1)
1(1)
1(1)
1(1)
1(1)
1(1)
1(1)
1(1)
1(1)
1(1)
1(1)
1(1)
1(1)
1(1)
1(1)
1(1)
1(1)
1(1)
1(1)
1(1)
1(1)
1(1)
1(1)
1(1)
1(1)
1(1)
1(1)
1(1)
1(1)
1(1)
1(1)
1(1)
1(1)
1(1)
1(1)
1(1)
1(1)
1(1)
1(1)
1(1)
1(1)
1(1)
1(1)
1(1)
1(1)
1(1)
1(1)
1(1)
1(1)
1(1)
1(1)
1(1)
1(1)
1(1)
1(1)
1(1)
1(1)
1(1)
1(1)
1(1)
1(1)
1(1)
1(1)
1(1)
1(1)
1(1)
1(1)
1(1)
1(1)
1(1)
1(1)
1(1)
1(1)
1(1)
1(1)
1(1)
1(1)
1(1)
1(1)
1(1)
1(1)
1(1)
1(1)
1(1)
1(1)
1(1)
1(1)
1(1)
1(1)
1(1)
1(1)
1(1)
1(1)
1(1)
1(1)
1(1)
1(1)
1(1)
1(1)
1(1)
1(1)
1(1)
1(1)
1(1)
1(1)
1(1)
1(1)
1(1)
1(1)
1(1)
1(1)
1(1)
1(1)
1(1)
1(1)
1(1)
1(1)
1(1)
1(1)
1(1)
1(1)
1(1)
1(1)
1(1)
1(1)
1(1)
1(1)
1(1)
1(1)
1(1)
1(1)
1(1)
1(1)
1(1)
1(1)
1(1)
1(1)
1(1)
1(1)
1(1)
1(1)
)

// edgeNormals

412
(
2(388 389)
2(388 390)
2(391 392)
2(391 393)
2(392 394)
2(395 389)
2(395 396)
2(397 396)
2(397 390)
2(398 394)
2(398 399)
2(393 399)
1(0)
1(1)
1(2)
1(3)
1(4)
1(5)
1(6)
1(7)
1(8)
1(9)
1(10)
1(11)
1(12)
1(13)
1(14)
1(15)
1(16)
1(17)
1(18)
1(19)
1(20)
1(21)
1(22)
1(23)
1(24)
1(25)
1(26)
1(27)
1(28)
1(29)
1(30)
1(31)
1(32)
1(32)
1(33)
1(34)
1(35)
1(36)
1(37)
1(38)
1(39)
1(40)
1(41)
1(42)
1(43)
1(44)
1(45)
1(46)
1(47)
1(48)
1(49)
1(50)
1(51)
1(52)
1(53)
1(54)
1(54)
1(55)
1(56)
1(57)
1(58)
1(59)
1(60)
1(61)
1(62)
1(63)
1(64)
1(65)
1(66)
1(67)
1(68)
1(69)
1(70)
1(71)
1(72)
1(73)
1(74)
1(75)
1(76)
1(77)
1(78)
1(79)
1(80)
1(81)
1(82)
1(82)
1(83)
1(84)
1(85)
1(86)
1(87)
1(88)
1(89)
1(90)
1(91)
1(92)
1(93)
1(94)
1(95)
1(96)
1(97)
1(98)
1(99)
1(100)
1(101)
1(102)
1(103)
1(103)
1(104)
1(105)
1(106)
1(107)
1(108)
1(109)
1(110)
1(111)
1(112)
1(113)
1(114)
1(115)
1(116)
1(117)
1(118)
1(119)
1(120)
1(121)
1(122)
1(123)
1(124)
1(125)
1(126)
1(127)
1(128)
1(129)
1(130)
1(131)
1(132)
1(133)
1(134)
1(135)
1(136)
1(136)
1(137)
1(138)
1(139)
1(140)
1(141)
1(142)
1(143)
1(144)
1(145)
1(146)
1(147)
1(148)
1(149)
1(150)
1(151)
1(152)
1(153)
1(154)
1(155)
1(156)
1(157)
1(158)
1(159)
1(160)
1(161)
1(161)
1(162)
1(163)
1(164)
1(165)
1(166)
1(167)
1(168)
1(169)
1(170)
1(171)
1(172)
1(173)
1(174)
1(175)
1(176)
1(177)
1(178)
1(179)
1(180)
1(181)
1(182)
1(183)
1(184)
1(185)
1(186)
1(187)
1(188)
1(189)
1(190)
1(191)
1(192)
1(193)
1(194)
1(195)
1(196)
1(197)
1(198)
1(199)
1(200)
1(201)
1(202)
1(203)
1(204)
1(205)
1(206)
1(206)
1(207)
1(208)
1(209)
1(210)
1(211)
1(212)
1(213)
1(214)
1(215)
1(216)
1(217)
1(218)
1(219)
1(220)
1(221)
1(222)
1(223)
1(224)
1(225)
1(226)
1(227)
1(228)
1(229)
1(230)
1(231)
1(232)
1(233)
1(234)
1(235)
1(236)
1(237)
1(238)
1(239)
1(240)
1(241)
1(241)
1(242)
1(243)
1(244)
1(245)
1(246)
1(247)
1(248)
1(249)
1(250)
1(251)
1(252)
1(253)
1(254)
1(255)
1(256)
1(257)
1(258)
1(259)
1(260)
1(261)
1(262)
1(263)
1(264)
1(265)
1(266)
1(267)
1(268)
1(269)
1(270)
1(271)
1(272)
1(273)
1(273)
1(274)
1(275)
1(276)
1(277)
1(278)
1(279)
1(280)
1(281)
1(282)
1(283)
1(284)
1(285)
1(286)
1(287)
1(288)
1(289)
1(290)
1(291)
1(292)
1(293)
1(294)
1(295)
1(296)
1(297)
1(298)
1(299)
1(300)
1(301)
1(302)
1(303)
1(304)
1(305)
1(306)
1(307)
1(308)
1(308)
1(309)
1(310)
1(311)
1(312)
1(313)
1(314)
1(315)
1(316)
1(317)
1(318)
1(319)
1(320)
1(321)
1(322)
1(323)
1(324)
1(325)
1(326)
1(327)
1(328)
1(329)
1(330)
1(331)
1(332)
1(333)
1(334)
1(335)
1(336)
1(337)
1(338)
1(339)
1(340)
1(341)
1(342)
1(343)
1(344)
1(345)
1(346)
1(347)
1(348)
1(348)
1(349)
1(350)
1(351)
1(352)
1(353)
1(354)
1(355)
1(356)
1(357)
1(358)
1(359)
1(360)
1(361)
1(362)
1(363)
1(364)
1(365)
1(366)
1(367)
1(368)
1(369)
1(370)
1(371)
1(372)
1(373)
1(374)
1(375)
1(376)
1(377)
1(378)
1(379)
1(380)
1(381)
1(382)
1(383)
1(384)
1(385)
1(386)
1(387)
1(387)
)

// featurePointNormals

8
(
3(388 390 393)
3(388 389 390)
3(388 389 392)
3(391 392 393)
3(392 394 396)
3(395 389 396)
3(397 396 390)
3(398 394 399)
)

// featurePointEdges

8
(
3(3 11 1)
3(0 8 1)
3(2 5 0)
3(2 4 3)
3(6 9 4)
3(5 7 6)
3(7 10 8)
3(9 11 10)
)

// regionEdges

400
(
12
13
14
15
16
17
18
19
20
21
22
23
24
25
26
27
28
29
30
31
32
33
34
35
36
37
38
39
40
41
42
43
44
45
46
47
48
49
50
51
52
53
54
55
56
57
58
59
60
61
62
63
64
65
66
67
68
69
70
71
72
73
74
75
76
77
78
79
80
81
82
83
84
85
86
87
88
89
90
91
92
93
94
95
96
97
98
99
100
101
102
103
104
105
106
107
108
109
110
111
112
113
114
115
116
117
118
119
120
121
122
123
124
125
126
127
128
129
130
131
132
133
134
135
136
137
138
139
140
141
142
143
144
145
146
147
148
149
150
151
152
153
154
155
156
157
158
159
160
161
162
163
164
165
166
167
168
169
170
171
172
173
174
175
176
177
178
179
180
181
182
183
184
185
186
187
188
189
190
191
192
193
194
195
196
197
198
199
200
201
202
203
204
205
206
207
208
209
210
211
212
213
214
215
216
217
218
219
220
221
222
223
224
225
226
227
228
229
230
231
232
233
234
235
236
237
238
239
240
241
242
243
244
245
246
247
248
249
250
251
252
253
254
255
256
257
258
259
260
261
262
263
264
265
266
267
268
269
270
271
272
273
274
275
276
277
278
279
280
281
282
283
284
285
286
287
288
289
290
291
292
293
294
295
296
297
298
299
300
301
302
303
304
305
306
307
308
309
310
311
312
313
314
315
316
317
318
319
320
321
322
323
324
325
326
327
328
329
330
331
332
333
334
335
336
337
338
339
340
341
342
343
344
345
346
347
348
349
350
351
352
353
354
355
356
357
358
359
360
361
362
363
364
365
366
367
368
369
370
371
372
373
374
375
376
377
378
379
380
381
382
383
384
385
386
387
388
389
390
391
392
393
394
395
396
397
398
399
400
401
402
403
404
405
406
407
408
409
410
411
)



// ************************************************************************* //
