/*--------------------------------*- C++ -*----------------------------------*\
  =========                 |
  \\      /  F ield         | OpenFOAM: The Open Source CFD Toolbox
   \\    /   O peration     | Website:  https://openfoam.org
    \\  /    A nd           | Version:  10
     \\/     M anipulation  |
\*---------------------------------------------------------------------------*/
FoamFile
{
    format      ascii;
    class       extendedFeatureEdgeMesh;
    location    "constant/extendedFeatureEdgeMesh";
    object      lake_model.extendedFeatureEdgeMesh;
}
// * * * * * * * * * * * * * * * * * * * * * * * * * * * * * * * * * * * * * //

// points

3588
(
(1 1 1)
(-1 1 1)
(-1 -1 1)
(1 -1 1)
(1 -1 -1)
(-1 -1 -1)
(-1 1 -1)
(1 1 -1)
(424.397 5.1888 1)
(439.044 19.0681 1)
(417.123 1.82893 1)
(421.036 2.91113 1)
(403.146 0.32872 1)
(396.816 -0.01 1)
(41.725 -0.01 1)
(34.3817 3.03168 1)
(15.1003 22.3131 1)
(23.5089 226.1 1)
(23.5089 226.1 0)
(341.855 170.464 1)
(-1.4904 155.601 1)
(341.855 170.464 0)
(-1.4904 155.601 0)
(383.045 79.429 1)
(383.045 79.429 0)
(375.476 75.059 1)
(375.476 75.059 0)
(5.53581 75.059 1)
(5.53581 75.059 0)
(8.99581 35.4085 1)
(10.8931 28.3224 1)
(-11.9746 275.793 1)
(-8.32526 287.357 1)
(0.981924 298.443 1)
(29.3007 311.644 1)
(42.2547 310.527 1)
(48.2866 309.597 1)
(293.488 346.319 1)
(310.742 347.815 1)
(327.554 347.815 1)
(334.131 346.053 1)
(422.005 295.319 1)
(434.235 285.934 1)
(428.427 291.027 1)
(444.4 275.769 1)
(447.134 268.91 1)
(440.496 22.3221 1)
(440.094 20.5507 1)
(-11.9756 275.793 0)
(8.99482 35.4084 0)
(41.725 -0.011 1)
(34.381 3.03097 1)
(15.0996 22.3124 1)
(10.8922 28.322 1)
(8.99482 35.4084 1)
(-11.9756 275.793 1)
(396.816 -0.011 1)
(403.146 0.327726 1)
(417.123 1.82793 1)
(421.037 2.91022 1)
(424.398 5.18807 1)
(439.045 19.0674 1)
(440.095 20.5503 1)
(440.497 22.322 1)
(447.135 268.91 1)
(444.401 275.77 1)
(434.235 285.935 1)
(428.428 291.028 1)
(422.005 295.32 1)
(334.131 346.054 1)
(327.554 347.816 1)
(310.742 347.816 1)
(293.487 346.32 1)
(48.2867 309.598 1)
(42.2549 310.528 1)
(29.3007 311.645 1)
(0.981158 298.444 1)
(-8.32602 287.358 1)
(439.044 19.0681 0.001)
(424.397 5.1888 0.001)
(417.393 1.86087 1)
(417.393 1.86087 0.001)
(417.123 1.82893 0.001)
(417.662 1.89867 1)
(417.662 1.89867 0.001)
(417.931 1.94231 1)
(417.931 1.94231 0.001)
(418.198 1.99177 1)
(418.198 1.99177 0.001)
(418.464 2.04702 1)
(418.464 2.04702 0.001)
(418.729 2.10804 1)
(418.729 2.10804 0.001)
(418.993 2.1748 1)
(418.993 2.1748 0.001)
(419.255 2.24726 1)
(419.255 2.24726 0.001)
(419.515 2.3254 1)
(419.515 2.3254 0.001)
(419.774 2.40918 1)
(419.774 2.40918 0.001)
(420.03 2.49855 1)
(420.03 2.49855 0.001)
(420.285 2.59348 1)
(420.285 2.59348 0.001)
(420.538 2.69391 1)
(420.538 2.69391 0.001)
(420.788 2.79981 1)
(420.788 2.79981 0.001)
(421.036 2.91113 0.001)
(421.282 3.0278 1)
(421.282 3.0278 0.001)
(421.525 3.14978 1)
(421.525 3.14978 0.001)
(421.765 3.277 1)
(421.765 3.277 0.001)
(422.002 3.40942 1)
(422.002 3.40942 0.001)
(422.237 3.54696 1)
(422.237 3.54696 0.001)
(422.468 3.68955 1)
(422.468 3.68955 0.001)
(422.697 3.83715 1)
(422.697 3.83715 0.001)
(422.922 3.98966 1)
(422.922 3.98966 0.001)
(423.143 4.14703 1)
(423.143 4.14703 0.001)
(423.362 4.30917 1)
(423.362 4.30917 0.001)
(423.576 4.47602 1)
(423.576 4.47602 0.001)
(423.787 4.64748 1)
(423.787 4.64748 0.001)
(423.994 4.82349 1)
(423.994 4.82349 0.001)
(424.198 5.00396 1)
(424.198 5.00396 0.001)
(403.146 0.32872 0.001)
(397.393 -0.00719801 1)
(397.393 -0.00719801 0.001)
(396.816 -0.01 0.001)
(397.969 0.00120769 1)
(397.969 0.00120769 0.001)
(398.545 0.0152163 1)
(398.545 0.0152163 0.001)
(399.122 0.0348265 1)
(399.122 0.0348265 0.001)
(399.698 0.0600365 1)
(399.698 0.0600365 0.001)
(400.273 0.0908438 1)
(400.273 0.0908438 0.001)
(400.849 0.127246 1)
(400.849 0.127246 0.001)
(401.424 0.169238 1)
(401.424 0.169238 0.001)
(401.998 0.216818 1)
(401.998 0.216818 0.001)
(402.572 0.26998 1)
(402.572 0.26998 0.001)
(41.725 -0.01 0.001)
(34.5586 2.85901 1)
(34.5586 2.85901 0.001)
(34.3817 3.03168 0.001)
(34.7395 2.69059 1)
(34.7395 2.69059 0.001)
(34.9243 2.52653 1)
(34.9243 2.52653 0.001)
(35.113 2.36691 1)
(35.113 2.36691 0.001)
(35.3055 2.21183 1)
(35.3055 2.21183 0.001)
(35.5015 2.06137 1)
(35.5015 2.06137 0.001)
(35.7011 1.91562 1)
(35.7011 1.91562 0.001)
(35.9042 1.77466 1)
(35.9042 1.77466 0.001)
(36.1105 1.63857 1)
(36.1105 1.63857 0.001)
(36.32 1.50743 1)
(36.32 1.50743 0.001)
(36.5325 1.38132 1)
(36.5325 1.38132 0.001)
(36.748 1.2603 1)
(36.748 1.2603 0.001)
(36.9663 1.14444 1)
(36.9663 1.14444 0.001)
(37.1874 1.03381 1)
(37.1874 1.03381 0.001)
(37.4109 0.928467 1)
(37.4109 0.928467 0.001)
(37.637 0.828477 1)
(37.637 0.828477 0.001)
(37.8653 0.733895 1)
(37.8653 0.733895 0.001)
(38.0958 0.644774 1)
(38.0958 0.644774 0.001)
(38.3284 0.561164 1)
(38.3284 0.561164 0.001)
(38.5629 0.483112 1)
(38.5629 0.483112 0.001)
(38.7992 0.410663 1)
(38.7992 0.410663 0.001)
(39.0372 0.343858 1)
(39.0372 0.343858 0.001)
(39.2767 0.282735 1)
(39.2767 0.282735 0.001)
(39.5175 0.227329 1)
(39.5175 0.227329 0.001)
(39.7596 0.17767 1)
(39.7596 0.17767 0.001)
(40.0029 0.133786 1)
(40.0029 0.133786 0.001)
(40.2471 0.0957038 1)
(40.2471 0.0957038 0.001)
(40.4921 0.0634435 1)
(40.4921 0.0634435 0.001)
(40.7378 0.0370238 1)
(40.7378 0.0370238 0.001)
(40.9841 0.0164597 1)
(40.9841 0.0164597 0.001)
(41.2309 0.00176262 1)
(41.2309 0.00176262 0.001)
(41.4779 -0.00705893 1)
(41.4779 -0.00705893 0.001)
(15.1003 22.3131 0.001)
(341.085 265.697 1)
(64.3811 241.564 1)
(64.3811 241.564 0)
(341.085 265.697 0)
(63.7148 241.503 1)
(63.7148 241.503 0)
(63.0491 241.436 1)
(63.0491 241.436 0)
(62.384 241.363 1)
(62.384 241.363 0)
(61.7196 241.284 1)
(61.7196 241.284 0)
(61.0559 241.199 1)
(61.0559 241.199 0)
(60.393 241.108 1)
(60.393 241.108 0)
(59.7309 241.012 1)
(59.7309 241.012 0)
(59.0697 240.909 1)
(59.0697 240.909 0)
(58.4094 240.801 1)
(58.4094 240.801 0)
(57.7502 240.686 1)
(57.7502 240.686 0)
(57.092 240.566 1)
(57.092 240.566 0)
(56.4349 240.44 1)
(56.4349 240.44 0)
(55.7789 240.308 1)
(55.7789 240.308 0)
(55.1241 240.171 1)
(55.1241 240.171 0)
(54.4706 240.027 1)
(54.4706 240.027 0)
(53.8184 239.878 1)
(53.8184 239.878 0)
(53.1676 239.723 1)
(53.1676 239.723 0)
(52.5181 239.562 1)
(52.5181 239.562 0)
(51.8701 239.395 1)
(51.8701 239.395 0)
(51.2237 239.222 1)
(51.2237 239.222 0)
(50.5788 239.044 1)
(50.5788 239.044 0)
(49.9355 238.86 1)
(49.9355 238.86 0)
(49.2938 238.671 1)
(49.2938 238.671 0)
(48.6539 238.475 1)
(48.6539 238.475 0)
(48.0158 238.274 1)
(48.0158 238.274 0)
(47.3794 238.067 1)
(47.3794 238.067 0)
(46.745 237.855 1)
(46.745 237.855 0)
(46.1124 237.637 1)
(46.1124 237.637 0)
(45.4818 237.413 1)
(45.4818 237.413 0)
(44.8533 237.184 1)
(44.8533 237.184 0)
(44.2268 236.949 1)
(44.2268 236.949 0)
(43.6024 236.708 1)
(43.6024 236.708 0)
(42.9802 236.462 1)
(42.9802 236.462 0)
(42.3602 236.211 1)
(42.3602 236.211 0)
(41.7425 235.953 1)
(41.7425 235.953 0)
(41.1271 235.691 1)
(41.1271 235.691 0)
(40.5141 235.423 1)
(40.5141 235.423 0)
(39.9034 235.149 1)
(39.9034 235.149 0)
(39.2953 234.87 1)
(39.2953 234.87 0)
(38.6896 234.586 1)
(38.6896 234.586 0)
(38.0865 234.296 1)
(38.0865 234.296 0)
(37.486 234.001 1)
(37.486 234.001 0)
(36.8882 233.701 1)
(36.8882 233.701 0)
(36.293 233.395 1)
(36.293 233.395 0)
(35.7007 233.084 1)
(35.7007 233.084 0)
(35.1111 232.768 1)
(35.1111 232.768 0)
(34.5243 232.446 1)
(34.5243 232.446 0)
(33.9404 232.119 1)
(33.9404 232.119 0)
(33.3595 231.787 1)
(33.3595 231.787 0)
(350.255 264.078 1)
(349.959 264.212 1)
(349.959 264.212 0)
(350.255 264.078 0)
(349.661 264.342 1)
(349.661 264.342 0)
(349.361 264.466 1)
(349.361 264.466 0)
(349.059 264.584 1)
(349.059 264.584 0)
(348.754 264.697 1)
(348.754 264.697 0)
(348.448 264.805 1)
(348.448 264.805 0)
(348.139 264.907 1)
(348.139 264.907 0)
(347.829 265.003 1)
(347.829 265.003 0)
(347.517 265.094 1)
(347.517 265.094 0)
(347.204 265.179 1)
(347.204 265.179 0)
(346.889 265.258 1)
(346.889 265.258 0)
(346.573 265.332 1)
(346.573 265.332 0)
(346.255 265.4 1)
(346.255 265.4 0)
(345.936 265.462 1)
(345.936 265.462 0)
(345.616 265.519 1)
(345.616 265.519 0)
(345.296 265.569 1)
(345.296 265.569 0)
(344.974 265.614 1)
(344.974 265.614 0)
(344.652 265.653 1)
(344.652 265.653 0)
(344.328 265.687 1)
(344.328 265.687 0)
(344.005 265.714 1)
(344.005 265.714 0)
(343.681 265.736 1)
(343.681 265.736 0)
(343.356 265.751 1)
(343.356 265.751 0)
(343.032 265.761 1)
(343.032 265.761 0)
(342.707 265.765 1)
(342.707 265.765 0)
(342.382 265.763 1)
(342.382 265.763 0)
(342.057 265.756 1)
(342.057 265.756 0)
(341.733 265.742 1)
(341.733 265.742 0)
(341.409 265.723 1)
(341.409 265.723 0)
(377.234 251.488 1)
(377.234 251.488 0)
(383.142 245.038 1)
(383.051 245.278 1)
(383.051 245.278 0)
(383.142 245.038 0)
(382.956 245.516 1)
(382.956 245.516 0)
(382.855 245.752 1)
(382.855 245.752 0)
(382.748 245.985 1)
(382.748 245.985 0)
(382.637 246.216 1)
(382.637 246.216 0)
(382.52 246.444 1)
(382.52 246.444 0)
(382.398 246.67 1)
(382.398 246.67 0)
(382.272 246.893 1)
(382.272 246.893 0)
(382.14 247.113 1)
(382.14 247.113 0)
(382.003 247.33 1)
(382.003 247.33 0)
(381.862 247.544 1)
(381.862 247.544 0)
(381.716 247.754 1)
(381.716 247.754 0)
(381.565 247.962 1)
(381.565 247.962 0)
(381.409 248.166 1)
(381.409 248.166 0)
(381.249 248.366 1)
(381.249 248.366 0)
(381.085 248.563 1)
(381.085 248.563 0)
(380.916 248.756 1)
(380.916 248.756 0)
(380.742 248.945 1)
(380.742 248.945 0)
(380.565 249.13 1)
(380.565 249.13 0)
(380.384 249.311 1)
(380.384 249.311 0)
(380.198 249.488 1)
(380.198 249.488 0)
(380.009 249.661 1)
(380.009 249.661 0)
(379.815 249.829 1)
(379.815 249.829 0)
(379.618 249.994 1)
(379.618 249.994 0)
(379.418 250.153 1)
(379.418 250.153 0)
(379.213 250.308 1)
(379.213 250.308 0)
(379.006 250.459 1)
(379.006 250.459 0)
(378.795 250.605 1)
(378.795 250.605 0)
(378.581 250.746 1)
(378.581 250.746 0)
(378.363 250.882 1)
(378.363 250.882 0)
(378.143 251.013 1)
(378.143 251.013 0)
(377.92 251.14 1)
(377.92 251.14 0)
(377.694 251.261 1)
(377.694 251.261 0)
(377.466 251.377 1)
(377.466 251.377 0)
(387.98 231.734 1)
(387.98 231.734 0)
(391.258 213.126 1)
(391.255 213.685 1)
(391.255 213.685 0)
(391.258 213.126 0)
(391.247 214.243 1)
(391.247 214.243 0)
(391.233 214.801 1)
(391.233 214.801 0)
(391.212 215.36 1)
(391.212 215.36 0)
(391.187 215.918 1)
(391.187 215.918 0)
(391.155 216.475 1)
(391.155 216.475 0)
(391.118 217.033 1)
(391.118 217.033 0)
(391.075 217.59 1)
(391.075 217.59 0)
(391.026 218.146 1)
(391.026 218.146 0)
(390.972 218.702 1)
(390.972 218.702 0)
(390.912 219.257 1)
(390.912 219.257 0)
(390.846 219.812 1)
(390.846 219.812 0)
(390.775 220.366 1)
(390.775 220.366 0)
(390.698 220.919 1)
(390.698 220.919 0)
(390.615 221.471 1)
(390.615 221.471 0)
(390.527 222.023 1)
(390.527 222.023 0)
(390.432 222.574 1)
(390.432 222.574 0)
(390.333 223.123 1)
(390.333 223.123 0)
(390.227 223.672 1)
(390.227 223.672 0)
(390.116 224.219 1)
(390.116 224.219 0)
(390 224.765 1)
(390 224.765 0)
(389.878 225.31 1)
(389.878 225.31 0)
(389.75 225.854 1)
(389.75 225.854 0)
(389.616 226.396 1)
(389.616 226.396 0)
(389.477 226.937 1)
(389.477 226.937 0)
(389.333 227.477 1)
(389.333 227.477 0)
(389.183 228.015 1)
(389.183 228.015 0)
(389.028 228.552 1)
(389.028 228.552 0)
(388.867 229.086 1)
(388.867 229.086 0)
(388.7 229.62 1)
(388.7 229.62 0)
(388.528 230.151 1)
(388.528 230.151 0)
(388.351 230.681 1)
(388.351 230.681 0)
(388.168 231.208 1)
(388.168 231.208 0)
(391.258 100.036 1)
(391.258 100.036 0)
(388.068 88.129 1)
(388.254 88.4577 1)
(388.254 88.4577 0)
(388.068 88.129 0)
(388.435 88.7894 1)
(388.435 88.7894 0)
(388.611 89.1238 1)
(388.611 89.1238 0)
(388.782 89.461 1)
(388.782 89.461 0)
(388.947 89.8009 1)
(388.947 89.8009 0)
(389.106 90.1433 1)
(389.106 90.1433 0)
(389.261 90.4883 1)
(389.261 90.4883 0)
(389.409 90.8356 1)
(389.409 90.8356 0)
(389.553 91.1852 1)
(389.553 91.1852 0)
(389.69 91.5371 1)
(389.69 91.5371 0)
(389.822 91.8911 1)
(389.822 91.8911 0)
(389.949 92.2472 1)
(389.949 92.2472 0)
(390.069 92.6052 1)
(390.069 92.6052 0)
(390.184 92.9651 1)
(390.184 92.9651 0)
(390.294 93.3268 1)
(390.294 93.3268 0)
(390.397 93.6902 1)
(390.397 93.6902 0)
(390.495 94.0551 1)
(390.495 94.0551 0)
(390.587 94.4216 1)
(390.587 94.4216 0)
(390.673 94.7895 1)
(390.673 94.7895 0)
(390.754 95.1587 1)
(390.754 95.1587 0)
(390.828 95.5291 1)
(390.828 95.5291 0)
(390.897 95.9007 1)
(390.897 95.9007 0)
(390.959 96.2733 1)
(390.959 96.2733 0)
(391.016 96.6469 1)
(391.016 96.6469 0)
(391.067 97.0213 1)
(391.067 97.0213 0)
(391.112 97.3964 1)
(391.112 97.3964 0)
(391.151 97.7723 1)
(391.151 97.7723 0)
(391.183 98.1487 1)
(391.183 98.1487 0)
(391.21 98.5256 1)
(391.21 98.5256 0)
(391.231 98.9028 1)
(391.231 98.9028 0)
(391.246 99.2803 1)
(391.246 99.2803 0)
(391.255 99.6581 1)
(391.255 99.6581 0)
(382.928 79.2324 1)
(382.928 79.2324 0)
(382.806 79.0389 1)
(382.806 79.0389 0)
(382.679 78.8486 1)
(382.679 78.8486 0)
(382.547 78.6618 1)
(382.547 78.6618 0)
(382.41 78.4785 1)
(382.41 78.4785 0)
(382.268 78.2988 1)
(382.268 78.2988 0)
(382.122 78.1229 1)
(382.122 78.1229 0)
(381.971 77.9508 1)
(381.971 77.9508 0)
(381.816 77.7828 1)
(381.816 77.7828 0)
(381.656 77.6189 1)
(381.656 77.6189 0)
(381.492 77.4593 1)
(381.492 77.4593 0)
(381.324 77.3039 1)
(381.324 77.3039 0)
(381.152 77.1531 1)
(381.152 77.1531 0)
(380.976 77.0068 1)
(380.976 77.0068 0)
(380.796 76.8651 1)
(380.796 76.8651 0)
(380.613 76.7282 1)
(380.613 76.7282 0)
(380.426 76.5962 1)
(380.426 76.5962 0)
(380.236 76.4691 1)
(380.236 76.4691 0)
(380.043 76.347 1)
(380.043 76.347 0)
(379.846 76.23 1)
(379.846 76.23 0)
(379.646 76.1182 1)
(379.646 76.1182 0)
(379.444 76.0116 1)
(379.444 76.0116 0)
(379.239 75.9104 1)
(379.239 75.9104 0)
(379.031 75.8146 1)
(379.031 75.8146 0)
(378.821 75.7243 1)
(378.821 75.7243 0)
(378.608 75.6395 1)
(378.608 75.6395 0)
(378.393 75.5603 1)
(378.393 75.5603 0)
(378.177 75.4868 1)
(378.177 75.4868 0)
(377.958 75.419 1)
(377.958 75.419 0)
(377.738 75.3568 1)
(377.738 75.3568 0)
(377.516 75.3005 1)
(377.516 75.3005 0)
(377.293 75.25 1)
(377.293 75.25 0)
(377.069 75.2054 1)
(377.069 75.2054 0)
(376.843 75.1666 1)
(376.843 75.1666 0)
(376.617 75.1338 1)
(376.617 75.1338 0)
(376.389 75.1069 1)
(376.389 75.1069 0)
(376.162 75.086 1)
(376.162 75.086 0)
(375.933 75.071 1)
(375.933 75.071 0)
(375.705 75.062 1)
(375.705 75.062 0)
(9.02923 35.059 1)
(9.02923 35.059 0.001)
(8.99581 35.4085 0.001)
(9.06846 34.7101 1)
(9.06846 34.7101 0.001)
(9.11348 34.3619 1)
(9.11348 34.3619 0.001)
(9.16428 34.0145 1)
(9.16428 34.0145 0.001)
(9.22086 33.668 1)
(9.22086 33.668 0.001)
(9.28319 33.3225 1)
(9.28319 33.3225 0.001)
(9.35125 32.978 1)
(9.35125 32.978 0.001)
(9.42504 32.6348 1)
(9.42504 32.6348 0.001)
(9.50451 32.2928 1)
(9.50451 32.2928 0.001)
(9.58967 31.9522 1)
(9.58967 31.9522 0.001)
(9.68048 31.613 1)
(9.68048 31.613 0.001)
(9.77691 31.2754 1)
(9.77691 31.2754 0.001)
(9.87894 30.9395 1)
(9.87894 30.9395 0.001)
(9.98655 30.6053 1)
(9.98655 30.6053 0.001)
(10.0997 30.2729 1)
(10.0997 30.2729 0.001)
(10.2184 29.9425 1)
(10.2184 29.9425 0.001)
(10.3425 29.6141 1)
(10.3425 29.6141 0.001)
(10.4721 29.2878 1)
(10.4721 29.2878 0.001)
(10.6071 28.9637 1)
(10.6071 28.9637 0.001)
(10.7474 28.6419 1)
(10.7474 28.6419 0.001)
(10.8931 28.3224 0.001)
(11.0441 28.0054 1)
(11.0441 28.0054 0.001)
(11.2003 27.691 1)
(11.2003 27.691 0.001)
(11.3617 27.3792 1)
(11.3617 27.3792 0.001)
(11.5283 27.0702 1)
(11.5283 27.0702 0.001)
(11.7001 26.764 1)
(11.7001 26.764 0.001)
(11.8768 26.4606 1)
(11.8768 26.4606 0.001)
(12.0586 26.1603 1)
(12.0586 26.1603 0.001)
(12.2454 25.863 1)
(12.2454 25.863 0.001)
(12.4371 25.5688 1)
(12.4371 25.5688 0.001)
(12.6336 25.2779 1)
(12.6336 25.2779 0.001)
(12.835 24.9903 1)
(12.835 24.9903 0.001)
(13.0411 24.7061 1)
(13.0411 24.7061 0.001)
(13.2519 24.4253 1)
(13.2519 24.4253 0.001)
(13.4674 24.1481 1)
(13.4674 24.1481 0.001)
(13.6874 23.8745 1)
(13.6874 23.8745 0.001)
(13.912 23.6046 1)
(13.912 23.6046 0.001)
(14.141 23.3385 1)
(14.141 23.3385 0.001)
(14.3744 23.0762 1)
(14.3744 23.0762 0.001)
(14.6121 22.8178 1)
(14.6121 22.8178 0.001)
(14.8541 22.5634 1)
(14.8541 22.5634 0.001)
(-11.9746 275.793 0.001)
(-8.51817 287.123 1)
(-8.51817 287.123 0.001)
(-8.32526 287.357 0.001)
(-8.70655 286.885 1)
(-8.70655 286.885 0.001)
(-8.89035 286.643 1)
(-8.89035 286.643 0.001)
(-9.06948 286.398 1)
(-9.06948 286.398 0.001)
(-9.24389 286.15 1)
(-9.24389 286.15 0.001)
(-9.41351 285.898 1)
(-9.41351 285.898 0.001)
(-9.57827 285.643 1)
(-9.57827 285.643 0.001)
(-9.73813 285.385 1)
(-9.73813 285.385 0.001)
(-9.89301 285.124 1)
(-9.89301 285.124 0.001)
(-10.0429 284.86 1)
(-10.0429 284.86 0.001)
(-10.1876 284.594 1)
(-10.1876 284.594 0.001)
(-10.3273 284.324 1)
(-10.3273 284.324 0.001)
(-10.4617 284.052 1)
(-10.4617 284.052 0.001)
(-10.5909 283.777 1)
(-10.5909 283.777 0.001)
(-10.7149 283.5 1)
(-10.7149 283.5 0.001)
(-10.8335 283.221 1)
(-10.8335 283.221 0.001)
(-10.9467 282.939 1)
(-10.9467 282.939 0.001)
(-11.0545 282.656 1)
(-11.0545 282.656 0.001)
(-11.1568 282.37 1)
(-11.1568 282.37 0.001)
(-11.2537 282.082 1)
(-11.2537 282.082 0.001)
(-11.345 281.793 1)
(-11.345 281.793 0.001)
(-11.4308 281.502 1)
(-11.4308 281.502 0.001)
(-11.511 281.209 1)
(-11.511 281.209 0.001)
(-11.5856 280.915 1)
(-11.5856 280.915 0.001)
(-11.6545 280.619 1)
(-11.6545 280.619 0.001)
(-11.7177 280.322 1)
(-11.7177 280.322 0.001)
(-11.7753 280.024 1)
(-11.7753 280.024 0.001)
(-11.8271 279.725 1)
(-11.8271 279.725 0.001)
(-11.8732 279.425 1)
(-11.8732 279.425 0.001)
(-11.9135 279.125 1)
(-11.9135 279.125 0.001)
(-11.9481 278.823 1)
(-11.9481 278.823 0.001)
(-11.9768 278.521 1)
(-11.9768 278.521 0.001)
(-11.9998 278.218 1)
(-11.9998 278.218 0.001)
(-12.017 277.915 1)
(-12.017 277.915 0.001)
(-12.0284 277.612 1)
(-12.0284 277.612 0.001)
(-12.034 277.309 1)
(-12.034 277.309 0.001)
(-12.0337 277.005 1)
(-12.0337 277.005 0.001)
(-12.0276 276.702 1)
(-12.0276 276.702 0.001)
(-12.0158 276.398 1)
(-12.0158 276.398 0.001)
(-11.9981 276.095 1)
(-11.9981 276.095 0.001)
(0.981924 298.443 0.001)
(28.8332 311.641 1)
(28.8332 311.641 0.001)
(29.3007 311.644 0.001)
(28.3658 311.632 1)
(28.3658 311.632 0.001)
(27.8985 311.618 1)
(27.8985 311.618 0.001)
(27.4315 311.597 1)
(27.4315 311.597 0.001)
(26.9647 311.57 1)
(26.9647 311.57 0.001)
(26.4984 311.538 1)
(26.4984 311.538 0.001)
(26.0325 311.499 1)
(26.0325 311.499 0.001)
(25.5671 311.455 1)
(25.5671 311.455 0.001)
(25.1022 311.405 1)
(25.1022 311.405 0.001)
(24.6381 311.349 1)
(24.6381 311.349 0.001)
(24.1747 311.287 1)
(24.1747 311.287 0.001)
(23.7122 311.219 1)
(23.7122 311.219 0.001)
(23.2505 311.146 1)
(23.2505 311.146 0.001)
(22.7898 311.066 1)
(22.7898 311.066 0.001)
(22.3301 310.981 1)
(22.3301 310.981 0.001)
(21.8716 310.89 1)
(21.8716 310.89 0.001)
(21.4142 310.793 1)
(21.4142 310.793 0.001)
(20.9581 310.691 1)
(20.9581 310.691 0.001)
(20.5033 310.582 1)
(20.5033 310.582 0.001)
(20.05 310.468 1)
(20.05 310.468 0.001)
(19.5981 310.348 1)
(19.5981 310.348 0.001)
(19.1477 310.223 1)
(19.1477 310.223 0.001)
(18.699 310.092 1)
(18.699 310.092 0.001)
(18.252 309.955 1)
(18.252 309.955 0.001)
(17.8068 309.812 1)
(17.8068 309.812 0.001)
(17.3633 309.664 1)
(17.3633 309.664 0.001)
(16.9218 309.51 1)
(16.9218 309.51 0.001)
(16.4823 309.351 1)
(16.4823 309.351 0.001)
(16.0448 309.186 1)
(16.0448 309.186 0.001)
(15.6095 309.016 1)
(15.6095 309.016 0.001)
(15.1763 308.84 1)
(15.1763 308.84 0.001)
(14.7454 308.659 1)
(14.7454 308.659 0.001)
(14.3168 308.472 1)
(14.3168 308.472 0.001)
(13.8906 308.28 1)
(13.8906 308.28 0.001)
(13.4669 308.082 1)
(13.4669 308.082 0.001)
(13.0457 307.88 1)
(13.0457 307.88 0.001)
(12.6271 307.671 1)
(12.6271 307.671 0.001)
(12.2112 307.458 1)
(12.2112 307.458 0.001)
(11.798 307.239 1)
(11.798 307.239 0.001)
(11.3876 307.015 1)
(11.3876 307.015 0.001)
(10.9801 306.786 1)
(10.9801 306.786 0.001)
(10.5754 306.552 1)
(10.5754 306.552 0.001)
(10.1738 306.313 1)
(10.1738 306.313 0.001)
(9.77528 306.068 1)
(9.77528 306.068 0.001)
(9.37985 305.819 1)
(9.37985 305.819 0.001)
(8.9876 305.565 1)
(8.9876 305.565 0.001)
(8.59859 305.305 1)
(8.59859 305.305 0.001)
(8.2129 305.041 1)
(8.2129 305.041 0.001)
(7.83058 304.772 1)
(7.83058 304.772 0.001)
(7.45169 304.498 1)
(7.45169 304.498 0.001)
(7.07629 304.22 1)
(7.07629 304.22 0.001)
(6.70444 303.936 1)
(6.70444 303.936 0.001)
(6.33621 303.648 1)
(6.33621 303.648 0.001)
(5.97165 303.356 1)
(5.97165 303.356 0.001)
(5.61082 303.058 1)
(5.61082 303.058 0.001)
(5.25377 302.757 1)
(5.25377 302.757 0.001)
(4.90057 302.45 1)
(4.90057 302.45 0.001)
(4.55127 302.14 1)
(4.55127 302.14 0.001)
(4.20593 301.824 1)
(4.20593 301.824 0.001)
(3.8646 301.505 1)
(3.8646 301.505 0.001)
(3.52733 301.181 1)
(3.52733 301.181 0.001)
(3.19419 300.853 1)
(3.19419 300.853 0.001)
(2.86522 300.521 1)
(2.86522 300.521 0.001)
(2.54047 300.185 1)
(2.54047 300.185 0.001)
(2.22 299.844 1)
(2.22 299.844 0.001)
(1.90386 299.5 1)
(1.90386 299.5 0.001)
(1.5921 299.152 1)
(1.5921 299.152 0.001)
(1.28477 298.799 1)
(1.28477 298.799 0.001)
(38.0869 311.644 0.001)
(42.2547 310.527 0.001)
(47.8795 309.618 1)
(47.8795 309.618 0.001)
(48.2866 309.597 0.001)
(47.4727 309.645 1)
(47.4727 309.645 0.001)
(47.0663 309.678 1)
(47.0663 309.678 0.001)
(46.6605 309.716 1)
(46.6605 309.716 0.001)
(46.2552 309.761 1)
(46.2552 309.761 0.001)
(45.8507 309.811 1)
(45.8507 309.811 0.001)
(45.4469 309.868 1)
(45.4469 309.868 0.001)
(45.044 309.93 1)
(45.044 309.93 0.001)
(44.642 309.998 1)
(44.642 309.998 0.001)
(44.2411 310.072 1)
(44.2411 310.072 0.001)
(43.8412 310.151 1)
(43.8412 310.151 0.001)
(43.4426 310.237 1)
(43.4426 310.237 0.001)
(43.0452 310.328 1)
(43.0452 310.328 0.001)
(42.6492 310.425 1)
(42.6492 310.425 0.001)
(72.912 308.503 0.001)
(79.1435 308.862 0.001)
(79.5546 308.931 0.001)
(78.7315 308.798 0.001)
(78.3187 308.741 0.001)
(77.9051 308.688 0.001)
(77.4909 308.642 0.001)
(77.076 308.601 0.001)
(76.6607 308.566 0.001)
(76.2449 308.536 0.001)
(75.8287 308.512 0.001)
(75.4123 308.494 0.001)
(74.9957 308.481 0.001)
(74.5789 308.474 0.001)
(74.162 308.473 0.001)
(73.7452 308.477 0.001)
(73.3285 308.487 0.001)
(293.488 346.319 0.001)
(309.988 347.812 1)
(309.988 347.812 0.001)
(310.742 347.815 0.001)
(309.235 347.804 1)
(309.235 347.804 0.001)
(308.481 347.789 1)
(308.481 347.789 0.001)
(307.727 347.77 1)
(307.727 347.77 0.001)
(306.973 347.744 1)
(306.973 347.744 0.001)
(306.22 347.713 1)
(306.22 347.713 0.001)
(305.467 347.676 1)
(305.467 347.676 0.001)
(304.714 347.634 1)
(304.714 347.634 0.001)
(303.962 347.585 1)
(303.962 347.585 0.001)
(303.21 347.532 1)
(303.21 347.532 0.001)
(302.458 347.472 1)
(302.458 347.472 0.001)
(301.707 347.407 1)
(301.707 347.407 0.001)
(300.956 347.336 1)
(300.956 347.336 0.001)
(300.206 347.26 1)
(300.206 347.26 0.001)
(299.457 347.178 1)
(299.457 347.178 0.001)
(298.708 347.09 1)
(298.708 347.09 0.001)
(297.96 346.997 1)
(297.96 346.997 0.001)
(297.212 346.898 1)
(297.212 346.898 0.001)
(296.466 346.793 1)
(296.466 346.793 0.001)
(295.72 346.683 1)
(295.72 346.683 0.001)
(294.975 346.567 1)
(294.975 346.567 0.001)
(294.231 346.446 1)
(294.231 346.446 0.001)
(327.554 347.815 0.001)
(333.891 346.188 1)
(333.891 346.188 0.001)
(334.131 346.053 0.001)
(333.648 346.318 1)
(333.648 346.318 0.001)
(333.403 346.443 1)
(333.403 346.443 0.001)
(333.155 346.563 1)
(333.155 346.563 0.001)
(332.904 346.678 1)
(332.904 346.678 0.001)
(332.651 346.787 1)
(332.651 346.787 0.001)
(332.396 346.891 1)
(332.396 346.891 0.001)
(332.139 346.99 1)
(332.139 346.99 0.001)
(331.88 347.083 1)
(331.88 347.083 0.001)
(331.619 347.171 1)
(331.619 347.171 0.001)
(331.356 347.254 1)
(331.356 347.254 0.001)
(331.091 347.33 1)
(331.091 347.33 0.001)
(330.825 347.402 1)
(330.825 347.402 0.001)
(330.558 347.467 1)
(330.558 347.467 0.001)
(330.289 347.528 1)
(330.289 347.528 0.001)
(330.019 347.582 1)
(330.019 347.582 0.001)
(329.748 347.631 1)
(329.748 347.631 0.001)
(329.476 347.674 1)
(329.476 347.674 0.001)
(329.203 347.711 1)
(329.203 347.711 0.001)
(328.929 347.743 1)
(328.929 347.743 0.001)
(328.655 347.769 1)
(328.655 347.769 0.001)
(328.38 347.789 1)
(328.38 347.789 0.001)
(328.105 347.803 1)
(328.105 347.803 0.001)
(327.83 347.812 1)
(327.83 347.812 0.001)
(422.005 295.319 0.001)
(433.812 286.353 1)
(433.812 286.353 0.001)
(434.235 285.934 0.001)
(433.385 286.767 1)
(433.385 286.767 0.001)
(432.954 287.177 1)
(432.954 287.177 0.001)
(432.519 287.582 1)
(432.519 287.582 0.001)
(432.08 287.983 1)
(432.08 287.983 0.001)
(431.637 288.379 1)
(431.637 288.379 0.001)
(431.19 288.772 1)
(431.19 288.772 0.001)
(430.739 289.159 1)
(430.739 289.159 0.001)
(430.284 289.542 1)
(430.284 289.542 0.001)
(429.826 289.92 1)
(429.826 289.92 0.001)
(429.363 290.294 1)
(429.363 290.294 0.001)
(428.897 290.663 1)
(428.897 290.663 0.001)
(428.427 291.027 0.001)
(427.954 291.387 1)
(427.954 291.387 0.001)
(427.477 291.742 1)
(427.477 291.742 0.001)
(426.996 292.092 1)
(426.996 292.092 0.001)
(426.512 292.437 1)
(426.512 292.437 0.001)
(426.024 292.777 1)
(426.024 292.777 0.001)
(425.533 293.113 1)
(425.533 293.113 0.001)
(425.039 293.443 1)
(425.039 293.443 0.001)
(424.541 293.768 1)
(424.541 293.768 0.001)
(424.04 294.089 1)
(424.04 294.089 0.001)
(423.536 294.404 1)
(423.536 294.404 0.001)
(423.028 294.714 1)
(423.028 294.714 0.001)
(422.518 295.019 1)
(422.518 295.019 0.001)
(444.4 275.769 0.001)
(447.137 269.14 1)
(447.137 269.14 0.001)
(447.134 268.91 0.001)
(447.135 269.37 1)
(447.135 269.37 0.001)
(447.127 269.6 1)
(447.127 269.6 0.001)
(447.113 269.829 1)
(447.113 269.829 0.001)
(447.094 270.059 1)
(447.094 270.059 0.001)
(447.069 270.287 1)
(447.069 270.287 0.001)
(447.039 270.515 1)
(447.039 270.515 0.001)
(447.003 270.742 1)
(447.003 270.742 0.001)
(446.961 270.969 1)
(446.961 270.969 0.001)
(446.914 271.194 1)
(446.914 271.194 0.001)
(446.861 271.417 1)
(446.861 271.417 0.001)
(446.802 271.64 1)
(446.802 271.64 0.001)
(446.739 271.861 1)
(446.739 271.861 0.001)
(446.67 272.08 1)
(446.67 272.08 0.001)
(446.595 272.298 1)
(446.595 272.298 0.001)
(446.515 272.514 1)
(446.515 272.514 0.001)
(446.43 272.727 1)
(446.43 272.727 0.001)
(446.34 272.939 1)
(446.34 272.939 0.001)
(446.244 273.148 1)
(446.244 273.148 0.001)
(446.143 273.355 1)
(446.143 273.355 0.001)
(446.038 273.559 1)
(446.038 273.559 0.001)
(445.927 273.761 1)
(445.927 273.761 0.001)
(445.811 273.96 1)
(445.811 273.96 0.001)
(445.691 274.155 1)
(445.691 274.155 0.001)
(445.565 274.348 1)
(445.565 274.348 0.001)
(445.435 274.538 1)
(445.435 274.538 0.001)
(445.301 274.725 1)
(445.301 274.725 0.001)
(445.161 274.908 1)
(445.161 274.908 0.001)
(445.018 275.087 1)
(445.018 275.087 0.001)
(444.87 275.263 1)
(444.87 275.263 0.001)
(444.717 275.436 1)
(444.717 275.436 0.001)
(444.561 275.604 1)
(444.561 275.604 0.001)
(440.496 22.3221 0.001)
(439.163 19.1845 1)
(439.163 19.1845 0.001)
(439.277 19.3051 1)
(439.277 19.3051 0.001)
(439.387 19.4297 1)
(439.387 19.4297 0.001)
(439.493 19.5582 1)
(439.493 19.5582 0.001)
(439.593 19.6903 1)
(439.593 19.6903 0.001)
(439.689 19.826 1)
(439.689 19.826 0.001)
(439.781 19.965 1)
(439.781 19.965 0.001)
(439.867 20.1071 1)
(439.867 20.1071 0.001)
(439.948 20.2522 1)
(439.948 20.2522 0.001)
(440.023 20.4002 1)
(440.023 20.4002 0.001)
(440.094 20.5507 0.001)
(440.159 20.7037 1)
(440.159 20.7037 0.001)
(440.218 20.8588 1)
(440.218 20.8588 0.001)
(440.272 21.016 1)
(440.272 21.016 0.001)
(440.32 21.1751 1)
(440.32 21.1751 0.001)
(440.363 21.3357 1)
(440.363 21.3357 0.001)
(440.4 21.4978 1)
(440.4 21.4978 0.001)
(440.431 21.6611 1)
(440.431 21.6611 0.001)
(440.456 21.8253 1)
(440.456 21.8253 0.001)
(440.475 21.9904 1)
(440.475 21.9904 0.001)
(440.488 22.156 1)
(440.488 22.156 0.001)
(41.5975 -0.010218 1)
(41.5976 -0.00921803 1)
(41.4701 -0.00787195 1)
(41.4701 -0.00687225 1)
(41.3427 -0.00396232 1)
(41.3428 -0.002963 1)
(41.2154 0.00151033 1)
(41.2154 0.00250912 1)
(41.0881 0.00854518 1)
(41.0882 0.0095433 1)
(40.961 0.0171412 1)
(40.961 0.0181385 1)
(40.8339 0.027297 1)
(40.834 0.0282933 1)
(40.707 0.0390112 1)
(40.7071 0.0400064 1)
(40.5802 0.0522819 1)
(40.5803 0.0532758 1)
(40.4536 0.0671072 1)
(40.4538 0.0680996 1)
(40.3273 0.0834847 1)
(40.3274 0.0844756 1)
(40.2011 0.101412 1)
(40.2012 0.102401 1)
(40.0751 0.120887 1)
(40.0753 0.121874 1)
(39.9494 0.141906 1)
(39.9496 0.142891 1)
(39.824 0.164466 1)
(39.8241 0.165449 1)
(39.6988 0.188563 1)
(39.699 0.189544 1)
(39.574 0.214195 1)
(39.5742 0.215173 1)
(39.4494 0.241356 1)
(39.4496 0.242332 1)
(39.3252 0.270044 1)
(39.3255 0.271017 1)
(39.2014 0.300254 1)
(39.2017 0.301224 1)
(39.078 0.331981 1)
(39.0782 0.332948 1)
(38.9549 0.36522 1)
(38.9552 0.366184 1)
(38.8323 0.399967 1)
(38.8326 0.400927 1)
(38.7101 0.436215 1)
(38.7104 0.437172 1)
(38.5884 0.473961 1)
(38.5887 0.474914 1)
(38.4671 0.513198 1)
(38.4674 0.514147 1)
(38.3463 0.553919 1)
(38.3467 0.554865 1)
(38.2261 0.59612 1)
(38.2264 0.597062 1)
(38.1063 0.639794 1)
(38.1067 0.640731 1)
(37.9871 0.684933 1)
(37.9875 0.685866 1)
(37.8685 0.731532 1)
(37.8689 0.732461 1)
(37.7505 0.779583 1)
(37.7509 0.780507 1)
(37.633 0.829079 1)
(37.6334 0.829998 1)
(37.5162 0.880013 1)
(37.5166 0.880927 1)
(37.4 0.932377 1)
(37.4004 0.933286 1)
(37.2844 0.986162 1)
(37.2849 0.987066 1)
(37.1696 1.04136 1)
(37.17 1.04226 1)
(37.0554 1.09797 1)
(37.0558 1.09886 1)
(36.9419 1.15597 1)
(36.9423 1.15686 1)
(36.8291 1.21536 1)
(36.8296 1.21624 1)
(36.7171 1.27613 1)
(36.7175 1.27701 1)
(36.6058 1.33827 1)
(36.6063 1.33914 1)
(36.4953 1.40177 1)
(36.4958 1.40263 1)
(36.3856 1.46662 1)
(36.3861 1.46748 1)
(36.2766 1.53282 1)
(36.2772 1.53367 1)
(36.1685 1.60034 1)
(36.1691 1.60119 1)
(36.0613 1.66919 1)
(36.0618 1.67003 1)
(35.9549 1.73935 1)
(35.9554 1.74018 1)
(35.8493 1.81081 1)
(35.8499 1.81163 1)
(35.7447 1.88355 1)
(35.7453 1.88437 1)
(35.6409 1.95758 1)
(35.6415 1.95839 1)
(35.5381 2.03288 1)
(35.5387 2.03368 1)
(35.4362 2.10943 1)
(35.4368 2.11022 1)
(35.3352 2.18722 1)
(35.3359 2.18801 1)
(35.2352 2.26625 1)
(35.2359 2.26703 1)
(35.1362 2.3465 1)
(35.1369 2.34727 1)