/*--------------------------------*- C++ -*----------------------------------*\
  =========                 |
  \\      /  F ield         | OpenFOAM: The Open Source CFD Toolbox
   \\    /   O peration     | Website:  https://openfoam.org
    \\  /    A nd           | Version:  10
     \\/     M anipulation  |
\*---------------------------------------------------------------------------*/
FoamFile
{
    format      ascii;
    class       extendedFeatureEdgeMesh;
    location    "constant/extendedFeatureEdgeMesh";
    object      outlet.extendedFeatureEdgeMesh;
}
// * * * * * * * * * * * * * * * * * * * * * * * * * * * * * * * * * * * * * //

// points

12
(
(1 1 1)
(-1 1 1)
(-1 -1 1)
(1 -1 1)
(1 -1 -1)
(-1 -1 -1)
(-1 1 -1)
(1 1 -1)
(-1.4904 155.601 0)
(8.99482 35.4084 0)
(-1.4904 155.601 1)
(8.99482 35.4084 1)
)

// edges

16
(
(1 2)
(0 1)
(2 3)
(3 0)
(4 3)
(2 5)
(5 4)
(6 5)
(1 6)
(7 4)
(6 7)
(7 0)
(8 9)
(10 8)
(9 11)
(11 10)
)

// concaveStart mixedStart nonFeatureStart
8 8 12
// internalStart flatStart openStart multipleStart
12 12 12 16
// normals

14
(
(-0.996216 -0.086907 0)
(-0.996216 -0.086907 0)
(0 0 1)
(-1 0 0)
(0 1 0)
(0 0 1)
(0 -1 0)
(1 0 -0)
(1 0 0)
(0 -1 0)
(0 0 -1)
(-1 0 0)
(0 0 -1)
(0 1 0)
)

// normal volume types

14
(
0
0
0
0
0
0
0
0
0
0
0
0
0
0
)

// normalDirections

16
(
2(1 -1)
2(1 -1)
2(1 -1)
2(1 -1)
2(1 -1)
2(1 -1)
2(1 -1)
2(1 -1)
2(1 -1)
2(1 -1)
2(1 -1)
2(1 -1)
1(1)
1(1)
1(1)
1(1)
)

// edgeNormals

16
(
2(2 3)
2(2 4)
2(5 6)
2(5 7)
2(6 8)
2(9 3)
2(9 10)
2(11 10)
2(11 4)
2(12 8)
2(12 13)
2(7 13)
1(0)
1(0)
1(1)
1(1)
)

// featurePointNormals

12
(
3(2 4 7)
3(2 3 4)
3(2 3 6)
3(5 6 7)
3(6 8 10)
3(9 3 10)
3(11 10 4)
3(12 8 13)
1(0)
1(0)
1(0)
1(1)
)

// featurePointEdges

12
(
3(3 11 1)
3(0 8 1)
3(2 5 0)
3(2 4 3)
3(6 9 4)
3(5 7 6)
3(7 10 8)
3(9 11 10)
2(12 13)
2(12 14)
2(13 15)
2(14 15)
)

// regionEdges
4(12 13 14 15)


// ************************************************************************* //
